
---------- Begin Simulation Statistics ----------
sim_seconds                                  0.013295                       # Number of seconds simulated
sim_ticks                                 13295401000                       # Number of ticks simulated
final_tick                                13295401000                       # Number of ticks from beginning of simulation (restored from checkpoints and never reset)
sim_freq                                 1000000000000                       # Frequency of simulated ticks
host_inst_rate                                 219442                       # Simulator instruction rate (inst/s)
host_op_rate                                   419228                       # Simulator op (including micro ops) rate (op/s)
host_tick_rate                              588179052                       # Simulator tick rate (ticks/s)
host_mem_usage                                2421936                       # Number of bytes of host memory used
host_seconds                                    22.60                       # Real time elapsed on the host
sim_insts                                     4960342                       # Number of instructions simulated
sim_ops                                       9476372                       # Number of ops (including micro ops) simulated
system.voltage_domain.voltage                       1                       # Voltage in Volts
system.clk_domain.clock                          1000                       # Clock period in ticks
system.mem_ctrls.bytes_read::gpu.shader_cores0.data        35072                       # Number of bytes read from this memory
system.mem_ctrls.bytes_read::gpu.shader_cores0.inst          288                       # Number of bytes read from this memory
system.mem_ctrls.bytes_read::gpu.shader_cores1.data        35456                       # Number of bytes read from this memory
system.mem_ctrls.bytes_read::gpu.shader_cores1.inst          312                       # Number of bytes read from this memory
system.mem_ctrls.bytes_read::gpu.shader_cores2.data        35072                       # Number of bytes read from this memory
system.mem_ctrls.bytes_read::gpu.shader_cores2.inst          288                       # Number of bytes read from this memory
system.mem_ctrls.bytes_read::gpu.shader_cores3.data        34816                       # Number of bytes read from this memory
system.mem_ctrls.bytes_read::gpu.shader_cores3.inst          288                       # Number of bytes read from this memory
system.mem_ctrls.bytes_read::gpu.ce             73052                       # Number of bytes read from this memory
system.mem_ctrls.bytes_read::cpu.inst        53320888                       # Number of bytes read from this memory
system.mem_ctrls.bytes_read::cpu.data         7972111                       # Number of bytes read from this memory
system.mem_ctrls.bytes_read::total           61507643                       # Number of bytes read from this memory
system.mem_ctrls.bytes_inst_read::gpu.shader_cores0.inst          288                       # Number of instructions bytes read from this memory
system.mem_ctrls.bytes_inst_read::gpu.shader_cores1.inst          312                       # Number of instructions bytes read from this memory
system.mem_ctrls.bytes_inst_read::gpu.shader_cores2.inst          288                       # Number of instructions bytes read from this memory
system.mem_ctrls.bytes_inst_read::gpu.shader_cores3.inst          288                       # Number of instructions bytes read from this memory
system.mem_ctrls.bytes_inst_read::cpu.inst     53320888                       # Number of instructions bytes read from this memory
system.mem_ctrls.bytes_inst_read::total      53322064                       # Number of instructions bytes read from this memory
system.mem_ctrls.bytes_written::gpu.shader_cores0.data        12544                       # Number of bytes written to this memory
system.mem_ctrls.bytes_written::gpu.shader_cores1.data        12672                       # Number of bytes written to this memory
system.mem_ctrls.bytes_written::gpu.shader_cores2.data        12544                       # Number of bytes written to this memory
system.mem_ctrls.bytes_written::gpu.shader_cores3.data        12544                       # Number of bytes written to this memory
system.mem_ctrls.bytes_written::gpu.ce          73052                       # Number of bytes written to this memory
system.mem_ctrls.bytes_written::cpu.data      4969927                       # Number of bytes written to this memory
system.mem_ctrls.bytes_written::total         5093283                       # Number of bytes written to this memory
system.mem_ctrls.num_reads::gpu.shader_cores0.data          428                       # Number of read requests responded to by this memory
system.mem_ctrls.num_reads::gpu.shader_cores0.inst           12                       # Number of read requests responded to by this memory
system.mem_ctrls.num_reads::gpu.shader_cores1.data          421                       # Number of read requests responded to by this memory
system.mem_ctrls.num_reads::gpu.shader_cores1.inst           13                       # Number of read requests responded to by this memory
system.mem_ctrls.num_reads::gpu.shader_cores2.data          428                       # Number of read requests responded to by this memory
system.mem_ctrls.num_reads::gpu.shader_cores2.inst           12                       # Number of read requests responded to by this memory
system.mem_ctrls.num_reads::gpu.shader_cores3.data          416                       # Number of read requests responded to by this memory
system.mem_ctrls.num_reads::gpu.shader_cores3.inst           12                       # Number of read requests responded to by this memory
system.mem_ctrls.num_reads::gpu.ce                577                       # Number of read requests responded to by this memory
system.mem_ctrls.num_reads::cpu.inst          6665111                       # Number of read requests responded to by this memory
system.mem_ctrls.num_reads::cpu.data          1297860                       # Number of read requests responded to by this memory
system.mem_ctrls.num_reads::total             7965290                       # Number of read requests responded to by this memory
system.mem_ctrls.num_writes::gpu.shader_cores0.data          308                       # Number of write requests responded to by this memory
system.mem_ctrls.num_writes::gpu.shader_cores1.data          322                       # Number of write requests responded to by this memory
system.mem_ctrls.num_writes::gpu.shader_cores2.data          308                       # Number of write requests responded to by this memory
system.mem_ctrls.num_writes::gpu.shader_cores3.data          320                       # Number of write requests responded to by this memory
system.mem_ctrls.num_writes::gpu.ce               576                       # Number of write requests responded to by this memory
system.mem_ctrls.num_writes::cpu.data          788149                       # Number of write requests responded to by this memory
system.mem_ctrls.num_writes::total             789983                       # Number of write requests responded to by this memory
system.mem_ctrls.bw_read::gpu.shader_cores0.data      2637905                       # Total read bandwidth from this memory (bytes/s)
system.mem_ctrls.bw_read::gpu.shader_cores0.inst        21662                       # Total read bandwidth from this memory (bytes/s)
system.mem_ctrls.bw_read::gpu.shader_cores1.data      2666787                       # Total read bandwidth from this memory (bytes/s)
system.mem_ctrls.bw_read::gpu.shader_cores1.inst        23467                       # Total read bandwidth from this memory (bytes/s)
system.mem_ctrls.bw_read::gpu.shader_cores2.data      2637905                       # Total read bandwidth from this memory (bytes/s)
system.mem_ctrls.bw_read::gpu.shader_cores2.inst        21662                       # Total read bandwidth from this memory (bytes/s)
system.mem_ctrls.bw_read::gpu.shader_cores3.data      2618650                       # Total read bandwidth from this memory (bytes/s)
system.mem_ctrls.bw_read::gpu.shader_cores3.inst        21662                       # Total read bandwidth from this memory (bytes/s)
system.mem_ctrls.bw_read::gpu.ce              5494532                       # Total read bandwidth from this memory (bytes/s)
system.mem_ctrls.bw_read::cpu.inst         4010476104                       # Total read bandwidth from this memory (bytes/s)
system.mem_ctrls.bw_read::cpu.data          599614182                       # Total read bandwidth from this memory (bytes/s)
system.mem_ctrls.bw_read::total            4626234515                       # Total read bandwidth from this memory (bytes/s)
system.mem_ctrls.bw_inst_read::gpu.shader_cores0.inst        21662                       # Instruction read bandwidth from this memory (bytes/s)
system.mem_ctrls.bw_inst_read::gpu.shader_cores1.inst        23467                       # Instruction read bandwidth from this memory (bytes/s)
system.mem_ctrls.bw_inst_read::gpu.shader_cores2.inst        21662                       # Instruction read bandwidth from this memory (bytes/s)
system.mem_ctrls.bw_inst_read::gpu.shader_cores3.inst        21662                       # Instruction read bandwidth from this memory (bytes/s)
system.mem_ctrls.bw_inst_read::cpu.inst    4010476104                       # Instruction read bandwidth from this memory (bytes/s)
system.mem_ctrls.bw_inst_read::total       4010564555                       # Instruction read bandwidth from this memory (bytes/s)
system.mem_ctrls.bw_write::gpu.shader_cores0.data       943484                       # Write bandwidth from this memory (bytes/s)
system.mem_ctrls.bw_write::gpu.shader_cores1.data       953112                       # Write bandwidth from this memory (bytes/s)
system.mem_ctrls.bw_write::gpu.shader_cores2.data       943484                       # Write bandwidth from this memory (bytes/s)
system.mem_ctrls.bw_write::gpu.shader_cores3.data       943484                       # Write bandwidth from this memory (bytes/s)
system.mem_ctrls.bw_write::gpu.ce             5494532                       # Write bandwidth from this memory (bytes/s)
system.mem_ctrls.bw_write::cpu.data         373807981                       # Write bandwidth from this memory (bytes/s)
system.mem_ctrls.bw_write::total            383086076                       # Write bandwidth from this memory (bytes/s)
system.mem_ctrls.bw_total::gpu.shader_cores0.data      3581389                       # Total bandwidth to/from this memory (bytes/s)
system.mem_ctrls.bw_total::gpu.shader_cores0.inst        21662                       # Total bandwidth to/from this memory (bytes/s)
system.mem_ctrls.bw_total::gpu.shader_cores1.data      3619898                       # Total bandwidth to/from this memory (bytes/s)
system.mem_ctrls.bw_total::gpu.shader_cores1.inst        23467                       # Total bandwidth to/from this memory (bytes/s)
system.mem_ctrls.bw_total::gpu.shader_cores2.data      3581389                       # Total bandwidth to/from this memory (bytes/s)
system.mem_ctrls.bw_total::gpu.shader_cores2.inst        21662                       # Total bandwidth to/from this memory (bytes/s)
system.mem_ctrls.bw_total::gpu.shader_cores3.data      3562134                       # Total bandwidth to/from this memory (bytes/s)
system.mem_ctrls.bw_total::gpu.shader_cores3.inst        21662                       # Total bandwidth to/from this memory (bytes/s)
system.mem_ctrls.bw_total::gpu.ce            10989063                       # Total bandwidth to/from this memory (bytes/s)
system.mem_ctrls.bw_total::cpu.inst        4010476104                       # Total bandwidth to/from this memory (bytes/s)
system.mem_ctrls.bw_total::cpu.data         973422163                       # Total bandwidth to/from this memory (bytes/s)
system.mem_ctrls.bw_total::total           5009320591                       # Total bandwidth to/from this memory (bytes/s)
system.ruby_clk_domain.clock                      500                       # Clock period in ticks
system.ruby.outstanding_req_hist::bucket_size            8                      
system.ruby.outstanding_req_hist::max_bucket           79                      
system.ruby.outstanding_req_hist::samples      8755274                      
system.ruby.outstanding_req_hist::mean       1.008957                      
system.ruby.outstanding_req_hist::gmean      1.000865                      
system.ruby.outstanding_req_hist::stdev      0.672434                      
system.ruby.outstanding_req_hist         |     8753407     99.98%     99.98% |         220      0.00%     99.98% |         259      0.00%     99.98% |         276      0.00%     99.99% |         194      0.00%     99.99% |          41      0.00%     99.99% |          70      0.00%     99.99% |          61      0.00%     99.99% |         746      0.01%    100.00% |           0      0.00%    100.00%
system.ruby.outstanding_req_hist::total       8755274                      
system.ruby.latency_hist::bucket_size             256                      
system.ruby.latency_hist::max_bucket             2559                      
system.ruby.latency_hist::samples             8755273                      
system.ruby.latency_hist::mean               2.205044                      
system.ruby.latency_hist::gmean              2.005704                      
system.ruby.latency_hist::stdev             15.378026                      
system.ruby.latency_hist                 |     8754038     99.99%     99.99% |         147      0.00%     99.99% |         159      0.00%     99.99% |         148      0.00%     99.99% |         196      0.00%     99.99% |         255      0.00%    100.00% |         195      0.00%    100.00% |         101      0.00%    100.00% |          32      0.00%    100.00% |           2      0.00%    100.00%
system.ruby.latency_hist::total               8755273                      
system.ruby.hit_latency_hist::bucket_size            2                      
system.ruby.hit_latency_hist::max_bucket           19                      
system.ruby.hit_latency_hist::samples         8752008                      
system.ruby.hit_latency_hist::mean           2.006699                      
system.ruby.hit_latency_hist::gmean          2.001999                      
system.ruby.hit_latency_hist::stdev          0.277285                      
system.ruby.hit_latency_hist             |        2361      0.03%      0.03% |     8744102     99.91%     99.94% |           0      0.00%     99.94% |           0      0.00%     99.94% |           0      0.00%     99.94% |           0      0.00%     99.94% |        5545      0.06%    100.00% |           0      0.00%    100.00% |           0      0.00%    100.00% |           0      0.00%    100.00%
system.ruby.hit_latency_hist::total           8752008                      
system.ruby.miss_latency_hist::bucket_size          256                      
system.ruby.miss_latency_hist::max_bucket         2559                      
system.ruby.miss_latency_hist::samples           3265                      
system.ruby.miss_latency_hist::mean        533.878407                      
system.ruby.miss_latency_hist::gmean       284.967257                      
system.ruby.miss_latency_hist::stdev       592.674553                      
system.ruby.miss_latency_hist            |        2030     62.17%     62.17% |         147      4.50%     66.68% |         159      4.87%     71.55% |         148      4.53%     76.08% |         196      6.00%     82.08% |         255      7.81%     89.89% |         195      5.97%     95.87% |         101      3.09%     98.96% |          32      0.98%     99.94% |           2      0.06%    100.00%
system.ruby.miss_latency_hist::total             3265                      
system.ruby.L1Cache.incomplete_times               34                      
system.ruby.l1_cntrl_ce.L1Dcache.demand_hits            0                       # Number of cache demand hits
system.ruby.l1_cntrl_ce.L1Dcache.demand_misses         1153                       # Number of cache demand misses
system.ruby.l1_cntrl_ce.L1Dcache.demand_accesses         1153                       # Number of cache demand accesses
system.ruby.l1_cntrl_ce.L1Icache.demand_hits            0                       # Number of cache demand hits
system.ruby.l1_cntrl_ce.L1Icache.demand_misses            0                       # Number of cache demand misses
system.ruby.l1_cntrl_ce.L1Icache.demand_accesses            0                       # Number of cache demand accesses
system.ruby.l1_cntrl_ce.L2cache.demand_hits            0                       # Number of cache demand hits
system.ruby.l1_cntrl_ce.L2cache.demand_misses         1153                       # Number of cache demand misses
system.ruby.l1_cntrl_ce.L2cache.demand_accesses         1153                       # Number of cache demand accesses
system.ruby.l1_cntrl_ce.fully_busy_cycles          633                       # cycles for which number of transistions == max transitions
system.ruby.l1_cntrl0.L1Dcache.demand_hits      2084521                       # Number of cache demand hits
system.ruby.l1_cntrl0.L1Dcache.demand_misses         1488                       # Number of cache demand misses
system.ruby.l1_cntrl0.L1Dcache.demand_accesses      2086009                       # Number of cache demand accesses
system.ruby.l1_cntrl0.L1Icache.demand_hits      6659581                       # Number of cache demand hits
system.ruby.l1_cntrl0.L1Icache.demand_misses         5530                       # Number of cache demand misses
system.ruby.l1_cntrl0.L1Icache.demand_accesses      6665111                       # Number of cache demand accesses
system.ruby.l1_cntrl0.L2cache.demand_hits         5545                       # Number of cache demand hits
system.ruby.l1_cntrl0.L2cache.demand_misses         1473                       # Number of cache demand misses
system.ruby.l1_cntrl0.L2cache.demand_accesses         7018                       # Number of cache demand accesses
system.ruby.network.routers0.percent_links_utilized     0.042742                      
system.ruby.network.routers0.msg_count.Request_Control::2         1473                      
system.ruby.network.routers0.msg_count.Request_Control::3            1                      
system.ruby.network.routers0.msg_count.Response_Data::4         1794                      
system.ruby.network.routers0.msg_count.Response_Control::4        10259                      
system.ruby.network.routers0.msg_count.Broadcast_Control::3         1758                      
system.ruby.network.routers0.msg_count.Unblock_Control::5         1473                      
system.ruby.network.routers0.msg_bytes.Request_Control::2        11784                      
system.ruby.network.routers0.msg_bytes.Request_Control::3            8                      
system.ruby.network.routers0.msg_bytes.Response_Data::4       243984                      
system.ruby.network.routers0.msg_bytes.Response_Control::4        82072                      
system.ruby.network.routers0.msg_bytes.Broadcast_Control::3        14064                      
system.ruby.network.routers0.msg_bytes.Unblock_Control::5        11784                      
system.ruby.dir_cntrl0.memBuffer.clk_domain.clock         2500                       # Clock period in ticks
system.ruby.dir_cntrl0.memBuffer.memReq          3330                       # Total number of memory requests
system.ruby.dir_cntrl0.memBuffer.memRead         2397                       # Number of memory reads
system.ruby.dir_cntrl0.memBuffer.memWrite          933                       # Number of memory writes
system.ruby.dir_cntrl0.memBuffer.memRefresh        12177                       # Number of memory refreshes
system.ruby.dir_cntrl0.memBuffer.memWaitCycles        28996                       # Delay stalled at the head of the bank queue
system.ruby.dir_cntrl0.memBuffer.memInputQ         8388                       # Delay in the input queue
system.ruby.dir_cntrl0.memBuffer.memBankQ        27862                       # Delay behind the head of the bank queue
system.ruby.dir_cntrl0.memBuffer.totalStalls        65246                       # Total number of stall cycles
system.ruby.dir_cntrl0.memBuffer.stallsPerReq    19.593393                       # Expected number of stall cycles per request
system.ruby.dir_cntrl0.memBuffer.memBankBusy         4961                       # memory stalls due to busy bank
system.ruby.dir_cntrl0.memBuffer.memBusBusy         8837                       # memory stalls due to busy bus
system.ruby.dir_cntrl0.memBuffer.memReadWriteBusy         1207                       # memory stalls due to read write turnaround
system.ruby.dir_cntrl0.memBuffer.memDataBusBusy         1998                       # memory stalls due to read read turnaround
system.ruby.dir_cntrl0.memBuffer.memArbWait         6015                       # memory stalls due to arbitration
system.ruby.dir_cntrl0.memBuffer.memNotOld         5978                       # memory stalls due to anti starvation
system.ruby.dir_cntrl0.memBuffer.memBankCount |          97      2.91%      2.91% |         100      3.00%      5.92% |          98      2.94%      8.86% |         104      3.12%     11.98% |          95      2.85%     14.83% |         105      3.15%     17.99% |          99      2.97%     20.96% |         104      3.12%     24.08% |         102      3.06%     27.15% |         101      3.03%     30.18% |         108      3.24%     33.42% |         101      3.03%     36.46% |          98      2.94%     39.40% |          99      2.97%     42.37% |         102      3.06%     45.44% |         100      3.00%     48.44% |         107      3.21%     51.65% |         108      3.24%     54.89% |         105      3.15%     58.05% |         112      3.36%     61.41% |         102      3.06%     64.47% |         104      3.12%     67.60% |         111      3.33%     70.93% |         115      3.45%     74.38% |         121      3.63%     78.02% |         116      3.48%     81.50% |         113      3.39%     84.89% |         102      3.06%     87.96% |         100      3.00%     90.96% |          96      2.88%     93.84% |         104      3.12%     96.97% |         101      3.03%    100.00% # Number of accesses per bank
system.ruby.dir_cntrl0.memBuffer.memBankCount::total         3330                       # Number of accesses per bank
system.ruby.dir_cntrl0.probeFilter.demand_hits            0                       # Number of cache demand hits
system.ruby.dir_cntrl0.probeFilter.demand_misses            0                       # Number of cache demand misses
system.ruby.dir_cntrl0.probeFilter.demand_accesses            0                       # Number of cache demand accesses
system.ruby.network.routers1.percent_links_utilized     0.064551                      
system.ruby.network.routers1.msg_count.Request_Control::2         3265                      
system.ruby.network.routers1.msg_count.Request_Control::3           25                      
system.ruby.network.routers1.msg_count.Response_Data::4         2397                      
system.ruby.network.routers1.msg_count.Writeback_Data::5          933                      
system.ruby.network.routers1.msg_count.Writeback_Control::2         1065                      
system.ruby.network.routers1.msg_count.Writeback_Control::3         1065                      
system.ruby.network.routers1.msg_count.Writeback_Control::5          132                      
system.ruby.network.routers1.msg_count.Broadcast_Control::3         3231                      
system.ruby.network.routers1.msg_count.Unblock_Control::5         3265                      
system.ruby.network.routers1.msg_bytes.Request_Control::2        26120                      
system.ruby.network.routers1.msg_bytes.Request_Control::3          200                      
system.ruby.network.routers1.msg_bytes.Response_Data::4       325992                      
system.ruby.network.routers1.msg_bytes.Writeback_Data::5       126888                      
system.ruby.network.routers1.msg_bytes.Writeback_Control::2         8520                      
system.ruby.network.routers1.msg_bytes.Writeback_Control::3         8520                      
system.ruby.network.routers1.msg_bytes.Writeback_Control::5         1056                      
system.ruby.network.routers1.msg_bytes.Broadcast_Control::3        25848                      
system.ruby.network.routers1.msg_bytes.Unblock_Control::5        26120                      
system.ruby.l1_cntrl_sp00.L1Dcache.demand_hits          594                       # Number of cache demand hits
system.ruby.l1_cntrl_sp00.L1Dcache.demand_misses          142                       # Number of cache demand misses
system.ruby.l1_cntrl_sp00.L1Dcache.demand_accesses          736                       # Number of cache demand accesses
system.ruby.l1_cntrl_sp00.L1Icache.demand_hits            0                       # Number of cache demand hits
system.ruby.l1_cntrl_sp00.L1Icache.demand_misses           12                       # Number of cache demand misses
system.ruby.l1_cntrl_sp00.L1Icache.demand_accesses           12                       # Number of cache demand accesses
system.ruby.l1_cntrl_sp00.L2cache.demand_hits            0                       # Number of cache demand hits
system.ruby.l1_cntrl_sp00.L2cache.demand_misses          154                       # Number of cache demand misses
system.ruby.l1_cntrl_sp00.L2cache.demand_accesses          154                       # Number of cache demand accesses
system.ruby.network.routers2.percent_links_utilized     0.011095                      
system.ruby.network.routers2.msg_count.Request_Control::2          154                      
system.ruby.network.routers2.msg_count.Request_Control::3           11                      
system.ruby.network.routers2.msg_count.Response_Data::4          270                      
system.ruby.network.routers2.msg_count.Response_Control::4         3808                      
system.ruby.network.routers2.msg_count.Broadcast_Control::3         3084                      
system.ruby.network.routers2.msg_count.Unblock_Control::5          154                      
system.ruby.network.routers2.msg_bytes.Request_Control::2         1232                      
system.ruby.network.routers2.msg_bytes.Request_Control::3           88                      
system.ruby.network.routers2.msg_bytes.Response_Data::4        36720                      
system.ruby.network.routers2.msg_bytes.Response_Control::4        30464                      
system.ruby.network.routers2.msg_bytes.Broadcast_Control::3        24672                      
system.ruby.network.routers2.msg_bytes.Unblock_Control::5         1232                      
system.ruby.l1_cntrl_sp01.L1Dcache.demand_hits          593                       # Number of cache demand hits
system.ruby.l1_cntrl_sp01.L1Dcache.demand_misses          150                       # Number of cache demand misses
system.ruby.l1_cntrl_sp01.L1Dcache.demand_accesses          743                       # Number of cache demand accesses
system.ruby.l1_cntrl_sp01.L1Icache.demand_hits            0                       # Number of cache demand hits
system.ruby.l1_cntrl_sp01.L1Icache.demand_misses           13                       # Number of cache demand misses
system.ruby.l1_cntrl_sp01.L1Icache.demand_accesses           13                       # Number of cache demand accesses
system.ruby.l1_cntrl_sp01.L2cache.demand_hits            0                       # Number of cache demand hits
system.ruby.l1_cntrl_sp01.L2cache.demand_misses          163                       # Number of cache demand misses
system.ruby.l1_cntrl_sp01.L2cache.demand_accesses          163                       # Number of cache demand accesses
system.ruby.network.routers3.percent_links_utilized     0.011022                      
system.ruby.network.routers3.msg_count.Request_Control::2          163                      
system.ruby.network.routers3.msg_count.Response_Data::4          263                      
system.ruby.network.routers3.msg_count.Response_Control::4         3848                      
system.ruby.network.routers3.msg_count.Broadcast_Control::3         3078                      
system.ruby.network.routers3.msg_count.Unblock_Control::5          163                      
system.ruby.network.routers3.msg_bytes.Request_Control::2         1304                      
system.ruby.network.routers3.msg_bytes.Response_Data::4        35768                      
system.ruby.network.routers3.msg_bytes.Response_Control::4        30784                      
system.ruby.network.routers3.msg_bytes.Broadcast_Control::3        24624                      
system.ruby.network.routers3.msg_bytes.Unblock_Control::5         1304                      
system.ruby.l1_cntrl_sp02.L1Dcache.demand_hits          591                       # Number of cache demand hits
system.ruby.l1_cntrl_sp02.L1Dcache.demand_misses          145                       # Number of cache demand misses
system.ruby.l1_cntrl_sp02.L1Dcache.demand_accesses          736                       # Number of cache demand accesses
system.ruby.l1_cntrl_sp02.L1Icache.demand_hits            0                       # Number of cache demand hits
system.ruby.l1_cntrl_sp02.L1Icache.demand_misses           12                       # Number of cache demand misses
system.ruby.l1_cntrl_sp02.L1Icache.demand_accesses           12                       # Number of cache demand accesses
system.ruby.l1_cntrl_sp02.L2cache.demand_hits            0                       # Number of cache demand hits
system.ruby.l1_cntrl_sp02.L2cache.demand_misses          157                       # Number of cache demand misses
system.ruby.l1_cntrl_sp02.L2cache.demand_accesses          157                       # Number of cache demand accesses
system.ruby.network.routers4.percent_links_utilized     0.010931                      
system.ruby.network.routers4.msg_count.Request_Control::2          157                      
system.ruby.network.routers4.msg_count.Request_Control::3            7                      
system.ruby.network.routers4.msg_count.Response_Data::4          259                      
system.ruby.network.routers4.msg_count.Response_Control::4         3819                      
system.ruby.network.routers4.msg_count.Broadcast_Control::3         3084                      
system.ruby.network.routers4.msg_count.Unblock_Control::5          157                      
system.ruby.network.routers4.msg_bytes.Request_Control::2         1256                      
system.ruby.network.routers4.msg_bytes.Request_Control::3           56                      
system.ruby.network.routers4.msg_bytes.Response_Data::4        35224                      
system.ruby.network.routers4.msg_bytes.Response_Control::4        30552                      
system.ruby.network.routers4.msg_bytes.Broadcast_Control::3        24672                      
system.ruby.network.routers4.msg_bytes.Unblock_Control::5         1256                      
system.ruby.l1_cntrl_sp03.L1Dcache.demand_hits          583                       # Number of cache demand hits
system.ruby.l1_cntrl_sp03.L1Dcache.demand_misses          153                       # Number of cache demand misses
system.ruby.l1_cntrl_sp03.L1Dcache.demand_accesses          736                       # Number of cache demand accesses
system.ruby.l1_cntrl_sp03.L1Icache.demand_hits            0                       # Number of cache demand hits
system.ruby.l1_cntrl_sp03.L1Icache.demand_misses           12                       # Number of cache demand misses
system.ruby.l1_cntrl_sp03.L1Icache.demand_accesses           12                       # Number of cache demand accesses
system.ruby.l1_cntrl_sp03.L2cache.demand_hits            0                       # Number of cache demand hits
system.ruby.l1_cntrl_sp03.L2cache.demand_misses          165                       # Number of cache demand misses
system.ruby.l1_cntrl_sp03.L2cache.demand_accesses          165                       # Number of cache demand accesses
system.ruby.network.routers5.percent_links_utilized     0.011184                      
system.ruby.network.routers5.msg_count.Request_Control::2          165                      
system.ruby.network.routers5.msg_count.Request_Control::3            6                      
system.ruby.network.routers5.msg_count.Response_Data::4          272                      
system.ruby.network.routers5.msg_count.Response_Control::4         3863                      
system.ruby.network.routers5.msg_count.Broadcast_Control::3         3073                      
system.ruby.network.routers5.msg_count.Unblock_Control::5          165                      
system.ruby.network.routers5.msg_bytes.Request_Control::2         1320                      
system.ruby.network.routers5.msg_bytes.Request_Control::3           48                      
system.ruby.network.routers5.msg_bytes.Response_Data::4        36992                      
system.ruby.network.routers5.msg_bytes.Response_Control::4        30904                      
system.ruby.network.routers5.msg_bytes.Broadcast_Control::3        24584                      
system.ruby.network.routers5.msg_bytes.Unblock_Control::5         1320                      
system.ruby.l1_pw_cntrl.L1Dcache.demand_hits            0                       # Number of cache demand hits
system.ruby.l1_pw_cntrl.L1Dcache.demand_misses            0                       # Number of cache demand misses
system.ruby.l1_pw_cntrl.L1Dcache.demand_accesses            0                       # Number of cache demand accesses
system.ruby.l1_pw_cntrl.L1Icache.demand_hits            0                       # Number of cache demand hits
system.ruby.l1_pw_cntrl.L1Icache.demand_misses            0                       # Number of cache demand misses
system.ruby.l1_pw_cntrl.L1Icache.demand_accesses            0                       # Number of cache demand accesses
system.ruby.l1_pw_cntrl.L2cache.demand_hits            0                       # Number of cache demand hits
system.ruby.l1_pw_cntrl.L2cache.demand_misses            0                       # Number of cache demand misses
system.ruby.l1_pw_cntrl.L2cache.demand_accesses            0                       # Number of cache demand accesses
system.ruby.network.routers6.percent_links_utilized     0.006075                      
system.ruby.network.routers6.msg_count.Response_Control::4         3231                      
system.ruby.network.routers6.msg_count.Broadcast_Control::3         3231                      
system.ruby.network.routers6.msg_bytes.Response_Control::4        25848                      
system.ruby.network.routers6.msg_bytes.Broadcast_Control::3        25848                      
system.ruby.network.routers7.percent_links_utilized     0.048273                      
system.ruby.network.routers7.msg_count.Request_Control::2         1153                      
system.ruby.network.routers7.msg_count.Response_Data::4         1206                      
system.ruby.network.routers7.msg_count.Response_Control::4         8336                      
system.ruby.network.routers7.msg_count.Writeback_Data::5          933                      
system.ruby.network.routers7.msg_count.Writeback_Control::2         1065                      
system.ruby.network.routers7.msg_count.Writeback_Control::3         1065                      
system.ruby.network.routers7.msg_count.Writeback_Control::5          132                      
system.ruby.network.routers7.msg_count.Broadcast_Control::3         2078                      
system.ruby.network.routers7.msg_count.Unblock_Control::5         1153                      
system.ruby.network.routers7.msg_bytes.Request_Control::2         9224                      
system.ruby.network.routers7.msg_bytes.Response_Data::4       164016                      
system.ruby.network.routers7.msg_bytes.Response_Control::4        66688                      
system.ruby.network.routers7.msg_bytes.Writeback_Data::5       126888                      
system.ruby.network.routers7.msg_bytes.Writeback_Control::2         8520                      
system.ruby.network.routers7.msg_bytes.Writeback_Control::3         8520                      
system.ruby.network.routers7.msg_bytes.Writeback_Control::5         1056                      
system.ruby.network.routers7.msg_bytes.Broadcast_Control::3        16624                      
system.ruby.network.routers7.msg_bytes.Unblock_Control::5         9224                      
system.ruby.network.routers8.percent_links_utilized     0.027651                      
system.ruby.network.routers8.msg_count.Request_Control::2         3265                      
system.ruby.network.routers8.msg_count.Request_Control::3           25                      
system.ruby.network.routers8.msg_count.Response_Data::4         3235                      
system.ruby.network.routers8.msg_count.Response_Control::4        18582                      
system.ruby.network.routers8.msg_count.Writeback_Data::5          933                      
system.ruby.network.routers8.msg_count.Writeback_Control::2         1065                      
system.ruby.network.routers8.msg_count.Writeback_Control::3         1065                      
system.ruby.network.routers8.msg_count.Writeback_Control::5          132                      
system.ruby.network.routers8.msg_count.Broadcast_Control::3        19386                      
system.ruby.network.routers8.msg_count.Unblock_Control::5         3265                      
system.ruby.network.routers8.msg_bytes.Request_Control::2        26120                      
system.ruby.network.routers8.msg_bytes.Request_Control::3          200                      
system.ruby.network.routers8.msg_bytes.Response_Data::4       439960                      
system.ruby.network.routers8.msg_bytes.Response_Control::4       148656                      
system.ruby.network.routers8.msg_bytes.Writeback_Data::5       126888                      
system.ruby.network.routers8.msg_bytes.Writeback_Control::2         8520                      
system.ruby.network.routers8.msg_bytes.Writeback_Control::3         8520                      
system.ruby.network.routers8.msg_bytes.Writeback_Control::5         1056                      
system.ruby.network.routers8.msg_bytes.Broadcast_Control::3       155088                      
system.ruby.network.routers8.msg_bytes.Unblock_Control::5        26120                      
system.ruby.network.msg_count.Request_Control         9870                      
system.ruby.network.msg_count.Response_Data         9696                      
system.ruby.network.msg_count.Response_Control        55746                      
system.ruby.network.msg_count.Writeback_Data         2799                      
system.ruby.network.msg_count.Writeback_Control         6786                      
system.ruby.network.msg_count.Broadcast_Control        42003                      
system.ruby.network.msg_count.Unblock_Control         9795                      
system.ruby.network.msg_byte.Request_Control        78960                      
system.ruby.network.msg_byte.Response_Data      1318656                      
system.ruby.network.msg_byte.Response_Control       445968                      
system.ruby.network.msg_byte.Writeback_Data       380664                      
system.ruby.network.msg_byte.Writeback_Control        54288                      
system.ruby.network.msg_byte.Broadcast_Control       336024                      
system.ruby.network.msg_byte.Unblock_Control        78360                      
system.ruby.memctrl_clk_domain.clock             1500                       # Clock period in ticks
system.cpu_voltage_domain.voltage                   1                       # Voltage in Volts
system.gpu.clk_domain.voltage_domain.voltage            1                       # Voltage in Volts
system.gpu.clk_domain.clock                      1429                       # Clock period in ticks
system.gpu.dram_wrapper.clk_domain.clock          541                       # Clock period in ticks
system.gpu.icnt_wrapper.clk_domain.clock         2858                       # Clock period in ticks
system.gpu.shader_mmu.numPagefaults                 0                       # Number of Pagefaults
system.gpu.shader_mmu.numPagewalks                167                       # Number of Pagewalks
system.gpu.shader_mmu.totalRequests               167                       # Total number of requests
system.gpu.shader_mmu.retryFailures                 0                       # Times the retry walk after a pagefault failed
system.gpu.shader_mmu.l2hits                        0                       # Hits in the shared L2
system.gpu.shader_mmu.prefetchHits                  0                       # Number of prefetch hits
system.gpu.shader_mmu.numPrefetches                 0                       # Number of prefetchs
system.gpu.shader_mmu.prefetchFaults                0                       # Number of faults caused by prefetches
system.gpu.shader_mmu.pagefaultLatency::samples            0                       # Latency to complete the pagefault
system.gpu.shader_mmu.pagefaultLatency::mean          nan                       # Latency to complete the pagefault
system.gpu.shader_mmu.pagefaultLatency::gmean          nan                       # Latency to complete the pagefault
system.gpu.shader_mmu.pagefaultLatency::stdev          nan                       # Latency to complete the pagefault
system.gpu.shader_mmu.pagefaultLatency::0            0                       # Latency to complete the pagefault
system.gpu.shader_mmu.pagefaultLatency::1            0                       # Latency to complete the pagefault
system.gpu.shader_mmu.pagefaultLatency::2            0                       # Latency to complete the pagefault
system.gpu.shader_mmu.pagefaultLatency::3            0                       # Latency to complete the pagefault
system.gpu.shader_mmu.pagefaultLatency::4            0                       # Latency to complete the pagefault
system.gpu.shader_mmu.pagefaultLatency::5            0                       # Latency to complete the pagefault
system.gpu.shader_mmu.pagefaultLatency::6            0                       # Latency to complete the pagefault
system.gpu.shader_mmu.pagefaultLatency::7            0                       # Latency to complete the pagefault
system.gpu.shader_mmu.pagefaultLatency::8            0                       # Latency to complete the pagefault
system.gpu.shader_mmu.pagefaultLatency::9            0                       # Latency to complete the pagefault
system.gpu.shader_mmu.pagefaultLatency::10            0                       # Latency to complete the pagefault
system.gpu.shader_mmu.pagefaultLatency::11            0                       # Latency to complete the pagefault
system.gpu.shader_mmu.pagefaultLatency::12            0                       # Latency to complete the pagefault
system.gpu.shader_mmu.pagefaultLatency::13            0                       # Latency to complete the pagefault
system.gpu.shader_mmu.pagefaultLatency::14            0                       # Latency to complete the pagefault
system.gpu.shader_mmu.pagefaultLatency::15            0                       # Latency to complete the pagefault
system.gpu.shader_mmu.pagefaultLatency::16            0                       # Latency to complete the pagefault
system.gpu.shader_mmu.pagefaultLatency::17            0                       # Latency to complete the pagefault
system.gpu.shader_mmu.pagefaultLatency::18            0                       # Latency to complete the pagefault
system.gpu.shader_mmu.pagefaultLatency::19            0                       # Latency to complete the pagefault
system.gpu.shader_mmu.pagefaultLatency::20            0                       # Latency to complete the pagefault
system.gpu.shader_mmu.pagefaultLatency::21            0                       # Latency to complete the pagefault
system.gpu.shader_mmu.pagefaultLatency::22            0                       # Latency to complete the pagefault
system.gpu.shader_mmu.pagefaultLatency::23            0                       # Latency to complete the pagefault
system.gpu.shader_mmu.pagefaultLatency::24            0                       # Latency to complete the pagefault
system.gpu.shader_mmu.pagefaultLatency::25            0                       # Latency to complete the pagefault
system.gpu.shader_mmu.pagefaultLatency::26            0                       # Latency to complete the pagefault
system.gpu.shader_mmu.pagefaultLatency::27            0                       # Latency to complete the pagefault
system.gpu.shader_mmu.pagefaultLatency::28            0                       # Latency to complete the pagefault
system.gpu.shader_mmu.pagefaultLatency::29            0                       # Latency to complete the pagefault
system.gpu.shader_mmu.pagefaultLatency::30            0                       # Latency to complete the pagefault
system.gpu.shader_mmu.pagefaultLatency::31            0                       # Latency to complete the pagefault
system.gpu.shader_mmu.pagefaultLatency::total            0                       # Latency to complete the pagefault
system.gpu.shader_mmu.concurrentWalks::samples          167                       # Number of outstanding walks
system.gpu.shader_mmu.concurrentWalks::mean            0                       # Number of outstanding walks
system.gpu.shader_mmu.concurrentWalks::gmean            0                       # Number of outstanding walks
system.gpu.shader_mmu.concurrentWalks::stdev            0                       # Number of outstanding walks
system.gpu.shader_mmu.concurrentWalks::0          167    100.00%    100.00% # Number of outstanding walks
system.gpu.shader_mmu.concurrentWalks::1            0      0.00%    100.00% # Number of outstanding walks
system.gpu.shader_mmu.concurrentWalks::2            0      0.00%    100.00% # Number of outstanding walks
system.gpu.shader_mmu.concurrentWalks::3            0      0.00%    100.00% # Number of outstanding walks
system.gpu.shader_mmu.concurrentWalks::4            0      0.00%    100.00% # Number of outstanding walks
system.gpu.shader_mmu.concurrentWalks::5            0      0.00%    100.00% # Number of outstanding walks
system.gpu.shader_mmu.concurrentWalks::6            0      0.00%    100.00% # Number of outstanding walks
system.gpu.shader_mmu.concurrentWalks::7            0      0.00%    100.00% # Number of outstanding walks
system.gpu.shader_mmu.concurrentWalks::8            0      0.00%    100.00% # Number of outstanding walks
system.gpu.shader_mmu.concurrentWalks::9            0      0.00%    100.00% # Number of outstanding walks
system.gpu.shader_mmu.concurrentWalks::10            0      0.00%    100.00% # Number of outstanding walks
system.gpu.shader_mmu.concurrentWalks::11            0      0.00%    100.00% # Number of outstanding walks
system.gpu.shader_mmu.concurrentWalks::12            0      0.00%    100.00% # Number of outstanding walks
system.gpu.shader_mmu.concurrentWalks::13            0      0.00%    100.00% # Number of outstanding walks
system.gpu.shader_mmu.concurrentWalks::14            0      0.00%    100.00% # Number of outstanding walks
system.gpu.shader_mmu.concurrentWalks::15            0      0.00%    100.00% # Number of outstanding walks
system.gpu.shader_mmu.concurrentWalks::total          167                       # Number of outstanding walks
system.gpu.shader_mmu.pagewalkLatency::samples          167                       # Latency to complete the pagewalk
system.gpu.shader_mmu.pagewalkLatency::mean            0                       # Latency to complete the pagewalk
system.gpu.shader_mmu.pagewalkLatency::gmean            0                       # Latency to complete the pagewalk
system.gpu.shader_mmu.pagewalkLatency::stdev            0                       # Latency to complete the pagewalk
system.gpu.shader_mmu.pagewalkLatency::0          167    100.00%    100.00% # Latency to complete the pagewalk
system.gpu.shader_mmu.pagewalkLatency::1            0      0.00%    100.00% # Latency to complete the pagewalk
system.gpu.shader_mmu.pagewalkLatency::2            0      0.00%    100.00% # Latency to complete the pagewalk
system.gpu.shader_mmu.pagewalkLatency::3            0      0.00%    100.00% # Latency to complete the pagewalk
system.gpu.shader_mmu.pagewalkLatency::4            0      0.00%    100.00% # Latency to complete the pagewalk
system.gpu.shader_mmu.pagewalkLatency::5            0      0.00%    100.00% # Latency to complete the pagewalk
system.gpu.shader_mmu.pagewalkLatency::6            0      0.00%    100.00% # Latency to complete the pagewalk
system.gpu.shader_mmu.pagewalkLatency::7            0      0.00%    100.00% # Latency to complete the pagewalk
system.gpu.shader_mmu.pagewalkLatency::8            0      0.00%    100.00% # Latency to complete the pagewalk
system.gpu.shader_mmu.pagewalkLatency::9            0      0.00%    100.00% # Latency to complete the pagewalk
system.gpu.shader_mmu.pagewalkLatency::10            0      0.00%    100.00% # Latency to complete the pagewalk
system.gpu.shader_mmu.pagewalkLatency::11            0      0.00%    100.00% # Latency to complete the pagewalk
system.gpu.shader_mmu.pagewalkLatency::12            0      0.00%    100.00% # Latency to complete the pagewalk
system.gpu.shader_mmu.pagewalkLatency::13            0      0.00%    100.00% # Latency to complete the pagewalk
system.gpu.shader_mmu.pagewalkLatency::14            0      0.00%    100.00% # Latency to complete the pagewalk
system.gpu.shader_mmu.pagewalkLatency::15            0      0.00%    100.00% # Latency to complete the pagewalk
system.gpu.shader_mmu.pagewalkLatency::16            0      0.00%    100.00% # Latency to complete the pagewalk
system.gpu.shader_mmu.pagewalkLatency::17            0      0.00%    100.00% # Latency to complete the pagewalk
system.gpu.shader_mmu.pagewalkLatency::18            0      0.00%    100.00% # Latency to complete the pagewalk
system.gpu.shader_mmu.pagewalkLatency::19            0      0.00%    100.00% # Latency to complete the pagewalk
system.gpu.shader_mmu.pagewalkLatency::20            0      0.00%    100.00% # Latency to complete the pagewalk
system.gpu.shader_mmu.pagewalkLatency::21            0      0.00%    100.00% # Latency to complete the pagewalk
system.gpu.shader_mmu.pagewalkLatency::22            0      0.00%    100.00% # Latency to complete the pagewalk
system.gpu.shader_mmu.pagewalkLatency::23            0      0.00%    100.00% # Latency to complete the pagewalk
system.gpu.shader_mmu.pagewalkLatency::24            0      0.00%    100.00% # Latency to complete the pagewalk
system.gpu.shader_mmu.pagewalkLatency::25            0      0.00%    100.00% # Latency to complete the pagewalk
system.gpu.shader_mmu.pagewalkLatency::26            0      0.00%    100.00% # Latency to complete the pagewalk
system.gpu.shader_mmu.pagewalkLatency::27            0      0.00%    100.00% # Latency to complete the pagewalk
system.gpu.shader_mmu.pagewalkLatency::28            0      0.00%    100.00% # Latency to complete the pagewalk
system.gpu.shader_mmu.pagewalkLatency::29            0      0.00%    100.00% # Latency to complete the pagewalk
system.gpu.shader_mmu.pagewalkLatency::30            0      0.00%    100.00% # Latency to complete the pagewalk
system.gpu.shader_mmu.pagewalkLatency::31            0      0.00%    100.00% # Latency to complete the pagewalk
system.gpu.shader_mmu.pagewalkLatency::total          167                       # Latency to complete the pagewalk
system.gpu.kernels_started                          2                       # Number of kernels started
system.gpu.kernels_completed                        2                       # Number of kernels completed
system.gpu.shader_cores0.itb.hits                   0                       # Number of hits in this TLB
system.gpu.shader_cores0.itb.misses                 0                       # Number of misses in this TLB
system.gpu.shader_cores0.itb.hitRate              nan                       # Hit rate for this TLB
system.gpu.shader_cores0.local_loads                0                       # Number of loads from local space
system.gpu.shader_cores0.local_stores               0                       # Number of stores to local space
system.gpu.shader_cores0.shared_loads            5056                       # Number of loads from shared space
system.gpu.shader_cores0.shared_stores           3072                       # Number of stores to shared space
system.gpu.shader_cores0.param_kernel_loads         7296                       # Number of loads from kernel parameter space
system.gpu.shader_cores0.param_local_loads            0                       # Number of loads from local parameter space
system.gpu.shader_cores0.param_local_stores            0                       # Number of stores to local parameter space
system.gpu.shader_cores0.const_loads                0                       # Number of loads from constant space
system.gpu.shader_cores0.tex_loads                  0                       # Number of loads from texture space
system.gpu.shader_cores0.global_loads            8256                       # Number of loads from global space
system.gpu.shader_cores0.global_stores           3136                       # Number of stores to global space
system.gpu.shader_cores0.surf_loads                 0                       # Number of loads from surface space
system.gpu.shader_cores0.generic_loads              0                       # Number of loads from generic spaces (global, shared, local)
system.gpu.shader_cores0.generic_stores             0                       # Number of stores to generic spaces (global, shared, local)
system.gpu.shader_cores0.inst_cache_requests           12                       # Number of instruction cache requests sent
system.gpu.shader_cores0.inst_cache_retries            0                       # Number of instruction cache retries
system.gpu.shader_cores0.inst_counts::0             0                       # Inst counts: 1: ALU, 2: MAD, 3: CTRL, 4: SFU, 5: MEM, 6: TEX, 7: NOP
system.gpu.shader_cores0.inst_counts::1        130176                       # Inst counts: 1: ALU, 2: MAD, 3: CTRL, 4: SFU, 5: MEM, 6: TEX, 7: NOP
system.gpu.shader_cores0.inst_counts::2          2048                       # Inst counts: 1: ALU, 2: MAD, 3: CTRL, 4: SFU, 5: MEM, 6: TEX, 7: NOP
system.gpu.shader_cores0.inst_counts::3         20416                       # Inst counts: 1: ALU, 2: MAD, 3: CTRL, 4: SFU, 5: MEM, 6: TEX, 7: NOP
system.gpu.shader_cores0.inst_counts::4          6144                       # Inst counts: 1: ALU, 2: MAD, 3: CTRL, 4: SFU, 5: MEM, 6: TEX, 7: NOP
system.gpu.shader_cores0.inst_counts::5         26816                       # Inst counts: 1: ALU, 2: MAD, 3: CTRL, 4: SFU, 5: MEM, 6: TEX, 7: NOP
system.gpu.shader_cores0.inst_counts::6             0                       # Inst counts: 1: ALU, 2: MAD, 3: CTRL, 4: SFU, 5: MEM, 6: TEX, 7: NOP
system.gpu.shader_cores0.inst_counts::7             0                       # Inst counts: 1: ALU, 2: MAD, 3: CTRL, 4: SFU, 5: MEM, 6: TEX, 7: NOP
system.gpu.shader_cores0.activeCycles            6466                       # Number of cycles this shader was executing a CTA
system.gpu.shader_cores0.notStalledCycles         4725                       # Number of cycles this shader was actually executing at least one instance
system.gpu.shader_cores0.instInstances         185600                       # Total instructions executed by all PEs in the core
system.gpu.shader_cores0.instPerCycle       28.703990                       # Instruction instances per cycle
system.gpu.shader_cores0.kernels_completed            2                       # Number of kernels completed
system.gpu.shader_cores0.lsq.data_tlb.hits            0                       # Number of hits in this TLB
system.gpu.shader_cores0.lsq.data_tlb.misses            0                       # Number of misses in this TLB
system.gpu.shader_cores0.lsq.data_tlb.hitRate          nan                       # Hit rate for this TLB
system.gpu.shader_cores0.lsq.warpInstBufActive::samples      7949527                       # Histogram of number of active warp inst buffers at a given time
system.gpu.shader_cores0.lsq.warpInstBufActive::mean     8.570735                       # Histogram of number of active warp inst buffers at a given time
system.gpu.shader_cores0.lsq.warpInstBufActive::gmean          nan                       # Histogram of number of active warp inst buffers at a given time
system.gpu.shader_cores0.lsq.warpInstBufActive::stdev    11.869482                       # Histogram of number of active warp inst buffers at a given time
system.gpu.shader_cores0.lsq.warpInstBufActive::0      3070921     38.63%     38.63% # Histogram of number of active warp inst buffers at a given time
system.gpu.shader_cores0.lsq.warpInstBufActive::1       874548     11.00%     49.63% # Histogram of number of active warp inst buffers at a given time
system.gpu.shader_cores0.lsq.warpInstBufActive::2       533017      6.71%     56.34% # Histogram of number of active warp inst buffers at a given time
system.gpu.shader_cores0.lsq.warpInstBufActive::3       280084      3.52%     59.86% # Histogram of number of active warp inst buffers at a given time
system.gpu.shader_cores0.lsq.warpInstBufActive::4       198631      2.50%     62.36% # Histogram of number of active warp inst buffers at a given time
system.gpu.shader_cores0.lsq.warpInstBufActive::5       137184      1.73%     64.08% # Histogram of number of active warp inst buffers at a given time
system.gpu.shader_cores0.lsq.warpInstBufActive::6       152903      1.92%     66.01% # Histogram of number of active warp inst buffers at a given time
system.gpu.shader_cores0.lsq.warpInstBufActive::7       122894      1.55%     67.55% # Histogram of number of active warp inst buffers at a given time
system.gpu.shader_cores0.lsq.warpInstBufActive::8       100030      1.26%     68.81% # Histogram of number of active warp inst buffers at a given time
system.gpu.shader_cores0.lsq.warpInstBufActive::9        81453      1.02%     69.84% # Histogram of number of active warp inst buffers at a given time
system.gpu.shader_cores0.lsq.warpInstBufActive::10       121465      1.53%     71.36% # Histogram of number of active warp inst buffers at a given time
system.gpu.shader_cores0.lsq.warpInstBufActive::11       121465      1.53%     72.89% # Histogram of number of active warp inst buffers at a given time
system.gpu.shader_cores0.lsq.warpInstBufActive::12        58589      0.74%     73.63% # Histogram of number of active warp inst buffers at a given time
system.gpu.shader_cores0.lsq.warpInstBufActive::13        38583      0.49%     74.11% # Histogram of number of active warp inst buffers at a given time
system.gpu.shader_cores0.lsq.warpInstBufActive::14        35725      0.45%     74.56% # Histogram of number of active warp inst buffers at a given time
system.gpu.shader_cores0.lsq.warpInstBufActive::15        57160      0.72%     75.28% # Histogram of number of active warp inst buffers at a given time
system.gpu.shader_cores0.lsq.warpInstBufActive::16        50015      0.63%     75.91% # Histogram of number of active warp inst buffers at a given time
system.gpu.shader_cores0.lsq.warpInstBufActive::17        21435      0.27%     76.18% # Histogram of number of active warp inst buffers at a given time
system.gpu.shader_cores0.lsq.warpInstBufActive::18        41441      0.52%     76.70% # Histogram of number of active warp inst buffers at a given time
system.gpu.shader_cores0.lsq.warpInstBufActive::19        30009      0.38%     77.08% # Histogram of number of active warp inst buffers at a given time
system.gpu.shader_cores0.lsq.warpInstBufActive::20        24293      0.31%     77.39% # Histogram of number of active warp inst buffers at a given time
system.gpu.shader_cores0.lsq.warpInstBufActive::21        37154      0.47%     77.85% # Histogram of number of active warp inst buffers at a given time
system.gpu.shader_cores0.lsq.warpInstBufActive::22        71450      0.90%     78.75% # Histogram of number of active warp inst buffers at a given time
system.gpu.shader_cores0.lsq.warpInstBufActive::23        78595      0.99%     79.74% # Histogram of number of active warp inst buffers at a given time
system.gpu.shader_cores0.lsq.warpInstBufActive::24       122894      1.55%     81.29% # Histogram of number of active warp inst buffers at a given time
system.gpu.shader_cores0.lsq.warpInstBufActive::25        31438      0.40%     81.68% # Histogram of number of active warp inst buffers at a given time
system.gpu.shader_cores0.lsq.warpInstBufActive::26        31438      0.40%     82.08% # Histogram of number of active warp inst buffers at a given time
system.gpu.shader_cores0.lsq.warpInstBufActive::27        98601      1.24%     83.32% # Histogram of number of active warp inst buffers at a given time
system.gpu.shader_cores0.lsq.warpInstBufActive::28        92885      1.17%     84.49% # Histogram of number of active warp inst buffers at a given time
system.gpu.shader_cores0.lsq.warpInstBufActive::29       135755      1.71%     86.19% # Histogram of number of active warp inst buffers at a given time
system.gpu.shader_cores0.lsq.warpInstBufActive::30       181483      2.28%     88.48% # Histogram of number of active warp inst buffers at a given time
system.gpu.shader_cores0.lsq.warpInstBufActive::31       187199      2.35%     90.83% # Histogram of number of active warp inst buffers at a given time
system.gpu.shader_cores0.lsq.warpInstBufActive::32       728790      9.17%    100.00% # Histogram of number of active warp inst buffers at a given time
system.gpu.shader_cores0.lsq.warpInstBufActive::33            0      0.00%    100.00% # Histogram of number of active warp inst buffers at a given time
system.gpu.shader_cores0.lsq.warpInstBufActive::34            0      0.00%    100.00% # Histogram of number of active warp inst buffers at a given time
system.gpu.shader_cores0.lsq.warpInstBufActive::35            0      0.00%    100.00% # Histogram of number of active warp inst buffers at a given time
system.gpu.shader_cores0.lsq.warpInstBufActive::36            0      0.00%    100.00% # Histogram of number of active warp inst buffers at a given time
system.gpu.shader_cores0.lsq.warpInstBufActive::37            0      0.00%    100.00% # Histogram of number of active warp inst buffers at a given time
system.gpu.shader_cores0.lsq.warpInstBufActive::38            0      0.00%    100.00% # Histogram of number of active warp inst buffers at a given time
system.gpu.shader_cores0.lsq.warpInstBufActive::39            0      0.00%    100.00% # Histogram of number of active warp inst buffers at a given time
system.gpu.shader_cores0.lsq.warpInstBufActive::40            0      0.00%    100.00% # Histogram of number of active warp inst buffers at a given time
system.gpu.shader_cores0.lsq.warpInstBufActive::41            0      0.00%    100.00% # Histogram of number of active warp inst buffers at a given time
system.gpu.shader_cores0.lsq.warpInstBufActive::42            0      0.00%    100.00% # Histogram of number of active warp inst buffers at a given time
system.gpu.shader_cores0.lsq.warpInstBufActive::43            0      0.00%    100.00% # Histogram of number of active warp inst buffers at a given time
system.gpu.shader_cores0.lsq.warpInstBufActive::44            0      0.00%    100.00% # Histogram of number of active warp inst buffers at a given time
system.gpu.shader_cores0.lsq.warpInstBufActive::45            0      0.00%    100.00% # Histogram of number of active warp inst buffers at a given time
system.gpu.shader_cores0.lsq.warpInstBufActive::46            0      0.00%    100.00% # Histogram of number of active warp inst buffers at a given time
system.gpu.shader_cores0.lsq.warpInstBufActive::47            0      0.00%    100.00% # Histogram of number of active warp inst buffers at a given time
system.gpu.shader_cores0.lsq.warpInstBufActive::48            0      0.00%    100.00% # Histogram of number of active warp inst buffers at a given time
system.gpu.shader_cores0.lsq.warpInstBufActive::49            0      0.00%    100.00% # Histogram of number of active warp inst buffers at a given time
system.gpu.shader_cores0.lsq.warpInstBufActive::50            0      0.00%    100.00% # Histogram of number of active warp inst buffers at a given time
system.gpu.shader_cores0.lsq.warpInstBufActive::51            0      0.00%    100.00% # Histogram of number of active warp inst buffers at a given time
system.gpu.shader_cores0.lsq.warpInstBufActive::52            0      0.00%    100.00% # Histogram of number of active warp inst buffers at a given time
system.gpu.shader_cores0.lsq.warpInstBufActive::53            0      0.00%    100.00% # Histogram of number of active warp inst buffers at a given time
system.gpu.shader_cores0.lsq.warpInstBufActive::54            0      0.00%    100.00% # Histogram of number of active warp inst buffers at a given time
system.gpu.shader_cores0.lsq.warpInstBufActive::55            0      0.00%    100.00% # Histogram of number of active warp inst buffers at a given time
system.gpu.shader_cores0.lsq.warpInstBufActive::56            0      0.00%    100.00% # Histogram of number of active warp inst buffers at a given time
system.gpu.shader_cores0.lsq.warpInstBufActive::57            0      0.00%    100.00% # Histogram of number of active warp inst buffers at a given time
system.gpu.shader_cores0.lsq.warpInstBufActive::58            0      0.00%    100.00% # Histogram of number of active warp inst buffers at a given time
system.gpu.shader_cores0.lsq.warpInstBufActive::59            0      0.00%    100.00% # Histogram of number of active warp inst buffers at a given time
system.gpu.shader_cores0.lsq.warpInstBufActive::60            0      0.00%    100.00% # Histogram of number of active warp inst buffers at a given time
system.gpu.shader_cores0.lsq.warpInstBufActive::61            0      0.00%    100.00% # Histogram of number of active warp inst buffers at a given time
system.gpu.shader_cores0.lsq.warpInstBufActive::62            0      0.00%    100.00% # Histogram of number of active warp inst buffers at a given time
system.gpu.shader_cores0.lsq.warpInstBufActive::63            0      0.00%    100.00% # Histogram of number of active warp inst buffers at a given time
system.gpu.shader_cores0.lsq.warpInstBufActive::64            0      0.00%    100.00% # Histogram of number of active warp inst buffers at a given time
system.gpu.shader_cores0.lsq.warpInstBufActive::total      7949527                       # Histogram of number of active warp inst buffers at a given time
system.gpu.shader_cores0.lsq.cacheAccesses     0.003063                       # Average number of concurrent outstanding cache accesses
system.gpu.shader_cores0.lsq.writebackBlockedCycles          111                       # Number of cycles blocked for core writeback stage
system.gpu.shader_cores0.lsq.mshrHitQueued          188                       # Number of hits on blocked lines in MSHRs
system.gpu.shader_cores0.lsq.mshrsFullCycles            0                       # Number of cycles stalled waiting for an MSHR
system.gpu.shader_cores0.lsq.mshrsFullCount            0                       # Number of times MSHRs filled
system.gpu.shader_cores0.lsq.warpCoalescedAccesses::samples          416                       # Number of coalesced accesses per warp instruction
system.gpu.shader_cores0.lsq.warpCoalescedAccesses::mean     1.769231                       # Number of coalesced accesses per warp instruction
system.gpu.shader_cores0.lsq.warpCoalescedAccesses::gmean     1.608176                       # Number of coalesced accesses per warp instruction
system.gpu.shader_cores0.lsq.warpCoalescedAccesses::stdev     0.763388                       # Number of coalesced accesses per warp instruction
system.gpu.shader_cores0.lsq.warpCoalescedAccesses::0            0      0.00%      0.00% # Number of coalesced accesses per warp instruction
system.gpu.shader_cores0.lsq.warpCoalescedAccesses::1          180     43.27%     43.27% # Number of coalesced accesses per warp instruction
system.gpu.shader_cores0.lsq.warpCoalescedAccesses::2          152     36.54%     79.81% # Number of coalesced accesses per warp instruction
system.gpu.shader_cores0.lsq.warpCoalescedAccesses::3           84     20.19%    100.00% # Number of coalesced accesses per warp instruction
system.gpu.shader_cores0.lsq.warpCoalescedAccesses::4            0      0.00%    100.00% # Number of coalesced accesses per warp instruction
system.gpu.shader_cores0.lsq.warpCoalescedAccesses::5            0      0.00%    100.00% # Number of coalesced accesses per warp instruction
system.gpu.shader_cores0.lsq.warpCoalescedAccesses::6            0      0.00%    100.00% # Number of coalesced accesses per warp instruction
system.gpu.shader_cores0.lsq.warpCoalescedAccesses::7            0      0.00%    100.00% # Number of coalesced accesses per warp instruction
system.gpu.shader_cores0.lsq.warpCoalescedAccesses::8            0      0.00%    100.00% # Number of coalesced accesses per warp instruction
system.gpu.shader_cores0.lsq.warpCoalescedAccesses::9            0      0.00%    100.00% # Number of coalesced accesses per warp instruction
system.gpu.shader_cores0.lsq.warpCoalescedAccesses::10            0      0.00%    100.00% # Number of coalesced accesses per warp instruction
system.gpu.shader_cores0.lsq.warpCoalescedAccesses::11            0      0.00%    100.00% # Number of coalesced accesses per warp instruction
system.gpu.shader_cores0.lsq.warpCoalescedAccesses::12            0      0.00%    100.00% # Number of coalesced accesses per warp instruction
system.gpu.shader_cores0.lsq.warpCoalescedAccesses::13            0      0.00%    100.00% # Number of coalesced accesses per warp instruction
system.gpu.shader_cores0.lsq.warpCoalescedAccesses::14            0      0.00%    100.00% # Number of coalesced accesses per warp instruction
system.gpu.shader_cores0.lsq.warpCoalescedAccesses::15            0      0.00%    100.00% # Number of coalesced accesses per warp instruction
system.gpu.shader_cores0.lsq.warpCoalescedAccesses::16            0      0.00%    100.00% # Number of coalesced accesses per warp instruction
system.gpu.shader_cores0.lsq.warpCoalescedAccesses::17            0      0.00%    100.00% # Number of coalesced accesses per warp instruction
system.gpu.shader_cores0.lsq.warpCoalescedAccesses::18            0      0.00%    100.00% # Number of coalesced accesses per warp instruction
system.gpu.shader_cores0.lsq.warpCoalescedAccesses::19            0      0.00%    100.00% # Number of coalesced accesses per warp instruction
system.gpu.shader_cores0.lsq.warpCoalescedAccesses::20            0      0.00%    100.00% # Number of coalesced accesses per warp instruction
system.gpu.shader_cores0.lsq.warpCoalescedAccesses::21            0      0.00%    100.00% # Number of coalesced accesses per warp instruction
system.gpu.shader_cores0.lsq.warpCoalescedAccesses::22            0      0.00%    100.00% # Number of coalesced accesses per warp instruction
system.gpu.shader_cores0.lsq.warpCoalescedAccesses::23            0      0.00%    100.00% # Number of coalesced accesses per warp instruction
system.gpu.shader_cores0.lsq.warpCoalescedAccesses::24            0      0.00%    100.00% # Number of coalesced accesses per warp instruction
system.gpu.shader_cores0.lsq.warpCoalescedAccesses::25            0      0.00%    100.00% # Number of coalesced accesses per warp instruction
system.gpu.shader_cores0.lsq.warpCoalescedAccesses::26            0      0.00%    100.00% # Number of coalesced accesses per warp instruction
system.gpu.shader_cores0.lsq.warpCoalescedAccesses::27            0      0.00%    100.00% # Number of coalesced accesses per warp instruction
system.gpu.shader_cores0.lsq.warpCoalescedAccesses::28            0      0.00%    100.00% # Number of coalesced accesses per warp instruction
system.gpu.shader_cores0.lsq.warpCoalescedAccesses::29            0      0.00%    100.00% # Number of coalesced accesses per warp instruction
system.gpu.shader_cores0.lsq.warpCoalescedAccesses::30            0      0.00%    100.00% # Number of coalesced accesses per warp instruction
system.gpu.shader_cores0.lsq.warpCoalescedAccesses::31            0      0.00%    100.00% # Number of coalesced accesses per warp instruction
system.gpu.shader_cores0.lsq.warpCoalescedAccesses::32            0      0.00%    100.00% # Number of coalesced accesses per warp instruction
system.gpu.shader_cores0.lsq.warpCoalescedAccesses::total          416                       # Number of coalesced accesses per warp instruction
system.gpu.shader_cores0.lsq.warpLatencyRead::samples          288                       # Latency in cycles for whole warp to finish the read
system.gpu.shader_cores0.lsq.warpLatencyRead::mean   147.927083                       # Latency in cycles for whole warp to finish the read
system.gpu.shader_cores0.lsq.warpLatencyRead::gmean    58.652580                       # Latency in cycles for whole warp to finish the read
system.gpu.shader_cores0.lsq.warpLatencyRead::stdev   186.868877                       # Latency in cycles for whole warp to finish the read
system.gpu.shader_cores0.lsq.warpLatencyRead::0-63          142     49.31%     49.31% # Latency in cycles for whole warp to finish the read
system.gpu.shader_cores0.lsq.warpLatencyRead::64-127           45     15.62%     64.93% # Latency in cycles for whole warp to finish the read
system.gpu.shader_cores0.lsq.warpLatencyRead::128-191           16      5.56%     70.49% # Latency in cycles for whole warp to finish the read
system.gpu.shader_cores0.lsq.warpLatencyRead::192-255           12      4.17%     74.65% # Latency in cycles for whole warp to finish the read
system.gpu.shader_cores0.lsq.warpLatencyRead::256-319           25      8.68%     83.33% # Latency in cycles for whole warp to finish the read
system.gpu.shader_cores0.lsq.warpLatencyRead::320-383           19      6.60%     89.93% # Latency in cycles for whole warp to finish the read
system.gpu.shader_cores0.lsq.warpLatencyRead::384-447            3      1.04%     90.97% # Latency in cycles for whole warp to finish the read
system.gpu.shader_cores0.lsq.warpLatencyRead::448-511            7      2.43%     93.40% # Latency in cycles for whole warp to finish the read
system.gpu.shader_cores0.lsq.warpLatencyRead::512-575            4      1.39%     94.79% # Latency in cycles for whole warp to finish the read
system.gpu.shader_cores0.lsq.warpLatencyRead::576-639            3      1.04%     95.83% # Latency in cycles for whole warp to finish the read
system.gpu.shader_cores0.lsq.warpLatencyRead::640-703            7      2.43%     98.26% # Latency in cycles for whole warp to finish the read
system.gpu.shader_cores0.lsq.warpLatencyRead::704-767            3      1.04%     99.31% # Latency in cycles for whole warp to finish the read
system.gpu.shader_cores0.lsq.warpLatencyRead::768-831            2      0.69%    100.00% # Latency in cycles for whole warp to finish the read
system.gpu.shader_cores0.lsq.warpLatencyRead::832-895            0      0.00%    100.00% # Latency in cycles for whole warp to finish the read
system.gpu.shader_cores0.lsq.warpLatencyRead::896-959            0      0.00%    100.00% # Latency in cycles for whole warp to finish the read
system.gpu.shader_cores0.lsq.warpLatencyRead::960-1023            0      0.00%    100.00% # Latency in cycles for whole warp to finish the read
system.gpu.shader_cores0.lsq.warpLatencyRead::total          288                       # Latency in cycles for whole warp to finish the read
system.gpu.shader_cores0.lsq.warpLatencyWrite::samples          128                       # Latency in cycles for whole warp to finish the write
system.gpu.shader_cores0.lsq.warpLatencyWrite::mean    20.382812                       # Latency in cycles for whole warp to finish the write
system.gpu.shader_cores0.lsq.warpLatencyWrite::gmean    18.440141                       # Latency in cycles for whole warp to finish the write
system.gpu.shader_cores0.lsq.warpLatencyWrite::stdev    11.284524                       # Latency in cycles for whole warp to finish the write
system.gpu.shader_cores0.lsq.warpLatencyWrite::0-3            0      0.00%      0.00% # Latency in cycles for whole warp to finish the write
system.gpu.shader_cores0.lsq.warpLatencyWrite::4-7            0      0.00%      0.00% # Latency in cycles for whole warp to finish the write
system.gpu.shader_cores0.lsq.warpLatencyWrite::8-11            2      1.56%      1.56% # Latency in cycles for whole warp to finish the write
system.gpu.shader_cores0.lsq.warpLatencyWrite::12-15           57     44.53%     46.09% # Latency in cycles for whole warp to finish the write
system.gpu.shader_cores0.lsq.warpLatencyWrite::16-19           25     19.53%     65.62% # Latency in cycles for whole warp to finish the write
system.gpu.shader_cores0.lsq.warpLatencyWrite::20-23           10      7.81%     73.44% # Latency in cycles for whole warp to finish the write
system.gpu.shader_cores0.lsq.warpLatencyWrite::24-27           14     10.94%     84.38% # Latency in cycles for whole warp to finish the write
system.gpu.shader_cores0.lsq.warpLatencyWrite::28-31           11      8.59%     92.97% # Latency in cycles for whole warp to finish the write
system.gpu.shader_cores0.lsq.warpLatencyWrite::32-35            1      0.78%     93.75% # Latency in cycles for whole warp to finish the write
system.gpu.shader_cores0.lsq.warpLatencyWrite::36-39            0      0.00%     93.75% # Latency in cycles for whole warp to finish the write
system.gpu.shader_cores0.lsq.warpLatencyWrite::40-43            0      0.00%     93.75% # Latency in cycles for whole warp to finish the write
system.gpu.shader_cores0.lsq.warpLatencyWrite::44-47            0      0.00%     93.75% # Latency in cycles for whole warp to finish the write
system.gpu.shader_cores0.lsq.warpLatencyWrite::48-51            0      0.00%     93.75% # Latency in cycles for whole warp to finish the write
system.gpu.shader_cores0.lsq.warpLatencyWrite::52-55            0      0.00%     93.75% # Latency in cycles for whole warp to finish the write
system.gpu.shader_cores0.lsq.warpLatencyWrite::56-59            7      5.47%     99.22% # Latency in cycles for whole warp to finish the write
system.gpu.shader_cores0.lsq.warpLatencyWrite::60-63            1      0.78%    100.00% # Latency in cycles for whole warp to finish the write
system.gpu.shader_cores0.lsq.warpLatencyWrite::total          128                       # Latency in cycles for whole warp to finish the write
system.gpu.shader_cores0.lsq.warpLatencyFence::samples          288                       # Latency in cycles for whole warp to finish the fence
system.gpu.shader_cores0.lsq.warpLatencyFence::mean     8.565972                       # Latency in cycles for whole warp to finish the fence
system.gpu.shader_cores0.lsq.warpLatencyFence::gmean     7.628819                       # Latency in cycles for whole warp to finish the fence
system.gpu.shader_cores0.lsq.warpLatencyFence::stdev     5.162430                       # Latency in cycles for whole warp to finish the fence
system.gpu.shader_cores0.lsq.warpLatencyFence::0-1            0      0.00%      0.00% # Latency in cycles for whole warp to finish the fence
[...]
system.ruby.L1Cache_Controller.MM.L2_Replacement::total          503                      
system.ruby.L1Cache_Controller.MM.L1_to_L2 |         701     56.31%     56.31% |           0      0.00%     56.31% |           0      0.00%     56.31% |           0      0.00%     56.31% |           0      0.00%     56.31% |           0      0.00%     56.31% |         544     43.69%    100.00%
system.ruby.L1Cache_Controller.MM.L1_to_L2::total         1245                      
system.ruby.L1Cache_Controller.MM.Trigger_L2_to_L1D |         453    100.00%    100.00% |           0      0.00%    100.00% |           0      0.00%    100.00% |           0      0.00%    100.00% |           0      0.00%    100.00% |           0      0.00%    100.00% |           0      0.00%    100.00%
system.ruby.L1Cache_Controller.MM.Trigger_L2_to_L1D::total          453                      
system.ruby.L1Cache_Controller.MM.Other_GETX |           8      4.21%      4.21% |          42     22.11%     26.32% |          47     24.74%     51.05% |          45     23.68%     74.74% |          48     25.26%    100.00% |           0      0.00%    100.00% |           0      0.00%    100.00%
system.ruby.L1Cache_Controller.MM.Other_GETX::total          190                      
system.ruby.L1Cache_Controller.MM.Other_GETS |         285     57.81%     57.81% |          39      7.91%     65.72% |          41      8.32%     74.04% |          35      7.10%     81.14% |          40      8.11%     89.25% |           0      0.00%     89.25% |          53     10.75%    100.00%
system.ruby.L1Cache_Controller.MM.Other_GETS::total          493                      
system.ruby.L1Cache_Controller.IR.Load   |          44    100.00%    100.00% |           0      0.00%    100.00% |           0      0.00%    100.00% |           0      0.00%    100.00% |           0      0.00%    100.00% |           0      0.00%    100.00% |           0      0.00%    100.00%
system.ruby.L1Cache_Controller.IR.Load::total           44                      
system.ruby.L1Cache_Controller.MR.Load   |          21    100.00%    100.00% |           0      0.00%    100.00% |           0      0.00%    100.00% |           0      0.00%    100.00% |           0      0.00%    100.00% |           0      0.00%    100.00% |           0      0.00%    100.00%
system.ruby.L1Cache_Controller.MR.Load::total           21                      
system.ruby.L1Cache_Controller.MR.Ifetch |        5070    100.00%    100.00% |           0      0.00%    100.00% |           0      0.00%    100.00% |           0      0.00%    100.00% |           0      0.00%    100.00% |           0      0.00%    100.00% |           0      0.00%    100.00%
system.ruby.L1Cache_Controller.MR.Ifetch::total         5070                      
system.ruby.L1Cache_Controller.MR.Store  |           1    100.00%    100.00% |           0      0.00%    100.00% |           0      0.00%    100.00% |           0      0.00%    100.00% |           0      0.00%    100.00% |           0      0.00%    100.00% |           0      0.00%    100.00%
system.ruby.L1Cache_Controller.MR.Store::total            1                      
system.ruby.L1Cache_Controller.MMR.Load  |         432    100.00%    100.00% |           0      0.00%    100.00% |           0      0.00%    100.00% |           0      0.00%    100.00% |           0      0.00%    100.00% |           0      0.00%    100.00% |           0      0.00%    100.00%
system.ruby.L1Cache_Controller.MMR.Load::total          432                      
system.ruby.L1Cache_Controller.MMR.Store |          21    100.00%    100.00% |           0      0.00%    100.00% |           0      0.00%    100.00% |           0      0.00%    100.00% |           0      0.00%    100.00% |           0      0.00%    100.00% |           0      0.00%    100.00%
system.ruby.L1Cache_Controller.MMR.Store::total           21                      
system.ruby.L1Cache_Controller.IM.L1_to_L2 |           0      0.00%      0.00% |           0      0.00%      0.00% |           0      0.00%      0.00% |           0      0.00%      0.00% |           0      0.00%      0.00% |           0      0.00%      0.00% |       22411    100.00%    100.00%
system.ruby.L1Cache_Controller.IM.L1_to_L2::total        22411                      
system.ruby.L1Cache_Controller.IM.Ack    |        4829     60.21%     60.21% |          36      0.45%     60.66% |          47      0.59%     61.25% |          45      0.56%     61.81% |          47      0.59%     62.39% |           0      0.00%     62.39% |        3016     37.61%    100.00%
system.ruby.L1Cache_Controller.IM.Ack::total         8020                      
system.ruby.L1Cache_Controller.IM.Data   |           1     16.67%     16.67% |           0      0.00%     16.67% |           0      0.00%     16.67% |           0      0.00%     16.67% |           0      0.00%     16.67% |           0      0.00%     16.67% |           5     83.33%    100.00%
system.ruby.L1Cache_Controller.IM.Data::total            6                      
system.ruby.L1Cache_Controller.IM.Exclusive_Data |         805     56.33%     56.33% |          12      0.84%     57.17% |          16      1.12%     58.29% |          12      0.84%     59.13% |          13      0.91%     60.04% |           0      0.00%     60.04% |         571     39.96%    100.00%
system.ruby.L1Cache_Controller.IM.Exclusive_Data::total         1429                      
system.ruby.L1Cache_Controller.SM.Ack    |           5      8.20%      8.20% |           9     14.75%     22.95% |          20     32.79%     55.74% |          20     32.79%     88.52% |           7     11.48%    100.00% |           0      0.00%    100.00% |           0      0.00%    100.00%
system.ruby.L1Cache_Controller.SM.Ack::total           61                      
system.ruby.L1Cache_Controller.SM.Data   |           2     11.76%     11.76% |           4     23.53%     35.29% |           4     23.53%     58.82% |           5     29.41%     88.24% |           2     11.76%    100.00% |           0      0.00%    100.00% |           0      0.00%    100.00%
system.ruby.L1Cache_Controller.SM.Data::total           17                      
system.ruby.L1Cache_Controller.OM.Other_GETX |           0      0.00%      0.00% |           0      0.00%      0.00% |           1    100.00%    100.00% |           0      0.00%    100.00% |           0      0.00%    100.00% |           0      0.00%    100.00% |           0      0.00%    100.00%
system.ruby.L1Cache_Controller.OM.Other_GETX::total            1                      
system.ruby.L1Cache_Controller.OM.Ack    |           0      0.00%      0.00% |          54     30.00%     30.00% |          12      6.67%     36.67% |          54     30.00%     66.67% |          60     33.33%    100.00% |           0      0.00%    100.00% |           0      0.00%    100.00%
system.ruby.L1Cache_Controller.OM.Ack::total          180                      
system.ruby.L1Cache_Controller.OM.All_acks_no_sharers |           0      0.00%      0.00% |           9     30.00%     30.00% |           2      6.67%     36.67% |           9     30.00%     66.67% |          10     33.33%    100.00% |           0      0.00%    100.00% |           0      0.00%    100.00%
system.ruby.L1Cache_Controller.OM.All_acks_no_sharers::total           30                      
system.ruby.L1Cache_Controller.ISM.Ack   |           7     16.67%     16.67% |          11     26.19%     42.86% |           0      0.00%     42.86% |           5     11.90%     54.76% |           3      7.14%     61.90% |           0      0.00%     61.90% |          16     38.10%    100.00%
system.ruby.L1Cache_Controller.ISM.Ack::total           42                      
system.ruby.L1Cache_Controller.ISM.All_acks_no_sharers |           3     13.04%     13.04% |           4     17.39%     30.43% |           4     17.39%     47.83% |           5     21.74%     69.57% |           2      8.70%     78.26% |           0      0.00%     78.26% |           5     21.74%    100.00%
system.ruby.L1Cache_Controller.ISM.All_acks_no_sharers::total           23                      
system.ruby.L1Cache_Controller.M_W.Load  |           0      0.00%      0.00% |           9     75.00%     75.00% |           0      0.00%     75.00% |           0      0.00%     75.00% |           3     25.00%    100.00% |           0      0.00%    100.00% |           0      0.00%    100.00%
system.ruby.L1Cache_Controller.M_W.Load::total           12                      
system.ruby.L1Cache_Controller.M_W.L1_to_L2 |           0      0.00%      0.00% |           0      0.00%      0.00% |           0      0.00%      0.00% |           0      0.00%      0.00% |           0      0.00%      0.00% |           0      0.00%      0.00% |         572    100.00%    100.00%
system.ruby.L1Cache_Controller.M_W.L1_to_L2::total          572                      
system.ruby.L1Cache_Controller.M_W.Ack   |          23      3.42%      3.42% |          28      4.16%      7.58% |          16      2.38%      9.96% |          13      1.93%     11.89% |          28      4.16%     16.05% |           0      0.00%     16.05% |         565     83.95%    100.00%
system.ruby.L1Cache_Controller.M_W.Ack::total          673                      
system.ruby.L1Cache_Controller.M_W.All_acks_no_sharers |         663     39.80%     39.80% |         110      6.60%     46.40% |         111      6.66%     53.06% |         103      6.18%     59.24% |         117      7.02%     66.27% |           0      0.00%     66.27% |         562     33.73%    100.00%
system.ruby.L1Cache_Controller.M_W.All_acks_no_sharers::total         1666                      
system.ruby.L1Cache_Controller.MM_W.Store |           1      4.17%      4.17% |           9     37.50%     41.67% |           8     33.33%     75.00% |           2      8.33%     83.33% |           4     16.67%    100.00% |           0      0.00%    100.00% |           0      0.00%    100.00%
system.ruby.L1Cache_Controller.MM_W.Store::total           24                      
system.ruby.L1Cache_Controller.MM_W.L1_to_L2 |           0      0.00%      0.00% |           0      0.00%      0.00% |           0      0.00%      0.00% |           0      0.00%      0.00% |           0      0.00%      0.00% |           0      0.00%      0.00% |         339    100.00%    100.00%
system.ruby.L1Cache_Controller.MM_W.L1_to_L2::total          339                      
system.ruby.L1Cache_Controller.MM_W.Ack  |           3      0.83%      0.83% |          25      6.93%      7.76% |          33      9.14%     16.90% |          18      4.99%     21.88% |          20      5.54%     27.42% |           0      0.00%     27.42% |         262     72.58%    100.00%
system.ruby.L1Cache_Controller.MM_W.Ack::total          361                      
system.ruby.L1Cache_Controller.MM_W.All_acks_no_sharers |         805     56.33%     56.33% |          12      0.84%     57.17% |          16      1.12%     58.29% |          12      0.84%     59.13% |          13      0.91%     60.04% |           0      0.00%     60.04% |         571     39.96%    100.00%
system.ruby.L1Cache_Controller.MM_W.All_acks_no_sharers::total         1429                      
system.ruby.L1Cache_Controller.IS.L1_to_L2 |           0      0.00%      0.00% |           0      0.00%      0.00% |           0      0.00%      0.00% |           0      0.00%      0.00% |           0      0.00%      0.00% |           0      0.00%      0.00% |       18498    100.00%    100.00%
system.ruby.L1Cache_Controller.IS.L1_to_L2::total        18498                      
system.ruby.L1Cache_Controller.IS.Other_GETS |           0      0.00%      0.00% |           8     22.22%     22.22% |          12     33.33%     55.56% |          11     30.56%     86.11% |           5     13.89%    100.00% |           0      0.00%    100.00% |           0      0.00%    100.00%
system.ruby.L1Cache_Controller.IS.Other_GETS::total           36                      
system.ruby.L1Cache_Controller.IS.Ack    |        3950     43.55%     43.55% |         647      7.13%     50.69% |         710      7.83%     58.52% |         646      7.12%     65.64% |         697      7.69%     73.33% |           0      0.00%     73.33% |        2419     26.67%    100.00%
system.ruby.L1Cache_Controller.IS.Ack::total         9069                      
system.ruby.L1Cache_Controller.IS.Shared_Ack |           0      0.00%      0.00% |           0      0.00%      0.00% |           2     12.50%     12.50% |           0      0.00%     12.50% |           2     12.50%     25.00% |           0      0.00%     25.00% |          12     75.00%    100.00%
system.ruby.L1Cache_Controller.IS.Shared_Ack::total           16                      
system.ruby.L1Cache_Controller.IS.Shared_Data |           2      1.71%      1.71% |          19     16.24%     17.95% |          30     25.64%     43.59% |          28     23.93%     67.52% |          23     19.66%     87.18% |           0      0.00%     87.18% |          15     12.82%    100.00%
system.ruby.L1Cache_Controller.IS.Shared_Data::total          117                      
system.ruby.L1Cache_Controller.IS.Exclusive_Data |         663     39.80%     39.80% |         110      6.60%     46.40% |         111      6.66%     53.06% |         103      6.18%     59.24% |         117      7.02%     66.27% |           0      0.00%     66.27% |         562     33.73%    100.00%
system.ruby.L1Cache_Controller.IS.Exclusive_Data::total         1666                      
system.ruby.L1Cache_Controller.SS.Load   |           0      0.00%      0.00% |          10     52.63%     52.63% |           7     36.84%     89.47% |           0      0.00%     89.47% |           2     10.53%    100.00% |           0      0.00%    100.00% |           0      0.00%    100.00%
system.ruby.L1Cache_Controller.SS.Load::total           19                      
system.ruby.L1Cache_Controller.SS.L1_to_L2 |           0      0.00%      0.00% |           0      0.00%      0.00% |           0      0.00%      0.00% |           0      0.00%      0.00% |           0      0.00%      0.00% |           0      0.00%      0.00% |          27    100.00%    100.00%
system.ruby.L1Cache_Controller.SS.L1_to_L2::total           27                      
system.ruby.L1Cache_Controller.SS.Ack    |           1      0.66%      0.66% |          28     18.54%     19.21% |          31     20.53%     39.74% |          37     24.50%     64.24% |          37     24.50%     88.74% |           0      0.00%     88.74% |          17     11.26%    100.00%
system.ruby.L1Cache_Controller.SS.Ack::total          151                      
system.ruby.L1Cache_Controller.SS.Shared_Ack |           3     33.33%     33.33% |           0      0.00%     33.33% |           1     11.11%     44.44% |           1     11.11%     55.56% |           0      0.00%     55.56% |           0      0.00%     55.56% |           4     44.44%    100.00%
system.ruby.L1Cache_Controller.SS.Shared_Ack::total            9                      
system.ruby.L1Cache_Controller.SS.All_acks |           2      1.71%      1.71% |          19     16.24%     17.95% |          30     25.64%     43.59% |          28     23.93%     67.52% |          23     19.66%     87.18% |           0      0.00%     87.18% |          15     12.82%    100.00%
system.ruby.L1Cache_Controller.SS.All_acks::total          117                      
system.ruby.L1Cache_Controller.MI.Writeback_Ack |           0      0.00%      0.00% |           0      0.00%      0.00% |           0      0.00%      0.00% |           0      0.00%      0.00% |           0      0.00%      0.00% |           0      0.00%      0.00% |        1065    100.00%    100.00%
system.ruby.L1Cache_Controller.MI.Writeback_Ack::total         1065                      
system.ruby.L1Cache_Controller.IT.Complete_L2_to_L1 |          44    100.00%    100.00% |           0      0.00%    100.00% |           0      0.00%    100.00% |           0      0.00%    100.00% |           0      0.00%    100.00% |           0      0.00%    100.00% |           0      0.00%    100.00%
system.ruby.L1Cache_Controller.IT.Complete_L2_to_L1::total           44                      
system.ruby.L1Cache_Controller.MT.Complete_L2_to_L1 |        5092    100.00%    100.00% |           0      0.00%    100.00% |           0      0.00%    100.00% |           0      0.00%    100.00% |           0      0.00%    100.00% |           0      0.00%    100.00% |           0      0.00%    100.00%
system.ruby.L1Cache_Controller.MT.Complete_L2_to_L1::total         5092                      
system.ruby.L1Cache_Controller.MMT.Complete_L2_to_L1 |         453    100.00%    100.00% |           0      0.00%    100.00% |           0      0.00%    100.00% |           0      0.00%    100.00% |           0      0.00%    100.00% |           0      0.00%    100.00% |           0      0.00%    100.00%
system.ruby.L1Cache_Controller.MMT.Complete_L2_to_L1::total          453                      
system.ruby.Directory_Controller.GETX            1484      0.00%      0.00%
system.ruby.Directory_Controller.GETS            1863      0.00%      0.00%
system.ruby.Directory_Controller.PUT             1069      0.00%      0.00%
system.ruby.Directory_Controller.UnblockS          117      0.00%      0.00%
system.ruby.Directory_Controller.UnblockM         3148      0.00%      0.00%
system.ruby.Directory_Controller.Writeback_Exclusive_Clean          132      0.00%      0.00%
system.ruby.Directory_Controller.Writeback_Exclusive_Dirty          933      0.00%      0.00%
system.ruby.Directory_Controller.Memory_Data         2397      0.00%      0.00%
system.ruby.Directory_Controller.Memory_Ack          933      0.00%      0.00%
system.ruby.Directory_Controller.All_Unblocks           25      0.00%      0.00%
system.ruby.Directory_Controller.NX.GETX           53      0.00%      0.00%
system.ruby.Directory_Controller.NX.GETS           16      0.00%      0.00%
system.ruby.Directory_Controller.NO.GETX          205      0.00%      0.00%
system.ruby.Directory_Controller.NO.GETS          560      0.00%      0.00%
system.ruby.Directory_Controller.NO.PUT          1065      0.00%      0.00%
system.ruby.Directory_Controller.E.GETX          1224      0.00%      0.00%
system.ruby.Directory_Controller.E.GETS          1173      0.00%      0.00%
system.ruby.Directory_Controller.NO_B.GETX            1      0.00%      0.00%
system.ruby.Directory_Controller.NO_B.GETS           25      0.00%      0.00%
system.ruby.Directory_Controller.NO_B.PUT            4      0.00%      0.00%
system.ruby.Directory_Controller.NO_B.UnblockS           63      0.00%      0.00%
system.ruby.Directory_Controller.NO_B.UnblockM         3142      0.00%      0.00%
system.ruby.Directory_Controller.NO_B_X.UnblockM            1      0.00%      0.00%
system.ruby.Directory_Controller.NO_B_S.GETS            9      0.00%      0.00%
system.ruby.Directory_Controller.NO_B_S.UnblockS           20      0.00%      0.00%
system.ruby.Directory_Controller.NO_B_S.UnblockM            5      0.00%      0.00%
system.ruby.Directory_Controller.NO_B_S_W.GETS            2      0.00%      0.00%
system.ruby.Directory_Controller.NO_B_S_W.UnblockS           34      0.00%      0.00%
system.ruby.Directory_Controller.NO_B_S_W.All_Unblocks           25      0.00%      0.00%
system.ruby.Directory_Controller.NO_B_W.GETX            1      0.00%      0.00%
system.ruby.Directory_Controller.NO_B_W.GETS           78      0.00%      0.00%
system.ruby.Directory_Controller.NO_B_W.Memory_Data         2397      0.00%      0.00%
system.ruby.Directory_Controller.WB.Writeback_Exclusive_Clean          132      0.00%      0.00%
system.ruby.Directory_Controller.WB.Writeback_Exclusive_Dirty          933      0.00%      0.00%
system.ruby.Directory_Controller.WB_E_W.Memory_Ack          933      0.00%      0.00%

---------- End Simulation Statistics   ----------
