
---------- Begin Simulation Statistics ----------
sim_seconds                                  0.013297                       # Number of seconds simulated
sim_ticks                                 13296826000                       # Number of ticks simulated
final_tick                                13296826000                       # Number of ticks from beginning of simulation (restored from checkpoints and never reset)
sim_freq                                 1000000000000                       # Frequency of simulated ticks
host_inst_rate                                 104155                       # Simulator instruction rate (inst/s)
host_op_rate                                   198980                       # Simulator op (including micro ops) rate (op/s)
host_tick_rate                              279200473                       # Simulator tick rate (ticks/s)
host_mem_usage                                2401448                       # Number of bytes of host memory used
host_seconds                                    47.62                       # Real time elapsed on the host
sim_insts                                     4960342                       # Number of instructions simulated
sim_ops                                       9476372                       # Number of ops (including micro ops) simulated
system.voltage_domain.voltage                       1                       # Voltage in Volts
system.clk_domain.clock                          1000                       # Clock period in ticks
system.mem_ctrls.bytes_read::gpu.shader_cores0.data        34944                       # Number of bytes read from this memory
system.mem_ctrls.bytes_read::gpu.shader_cores0.inst          288                       # Number of bytes read from this memory
system.mem_ctrls.bytes_read::gpu.shader_cores1.data        35584                       # Number of bytes read from this memory
system.mem_ctrls.bytes_read::gpu.shader_cores1.inst          312                       # Number of bytes read from this memory
system.mem_ctrls.bytes_read::gpu.shader_cores2.data        34944                       # Number of bytes read from this memory
system.mem_ctrls.bytes_read::gpu.shader_cores2.inst          288                       # Number of bytes read from this memory
system.mem_ctrls.bytes_read::gpu.shader_cores3.data        34944                       # Number of bytes read from this memory
system.mem_ctrls.bytes_read::gpu.shader_cores3.inst          288                       # Number of bytes read from this memory
system.mem_ctrls.bytes_read::gpu.ce             73052                       # Number of bytes read from this memory
system.mem_ctrls.bytes_read::cpu.inst        53320888                       # Number of bytes read from this memory
system.mem_ctrls.bytes_read::cpu.data         7972111                       # Number of bytes read from this memory
system.mem_ctrls.bytes_read::total           61507643                       # Number of bytes read from this memory
system.mem_ctrls.bytes_inst_read::gpu.shader_cores0.inst          288                       # Number of instructions bytes read from this memory
system.mem_ctrls.bytes_inst_read::gpu.shader_cores1.inst          312                       # Number of instructions bytes read from this memory
system.mem_ctrls.bytes_inst_read::gpu.shader_cores2.inst          288                       # Number of instructions bytes read from this memory
system.mem_ctrls.bytes_inst_read::gpu.shader_cores3.inst          288                       # Number of instructions bytes read from this memory
system.mem_ctrls.bytes_inst_read::cpu.inst     53320888                       # Number of instructions bytes read from this memory
system.mem_ctrls.bytes_inst_read::total      53322064                       # Number of instructions bytes read from this memory
system.mem_ctrls.bytes_written::gpu.shader_cores0.data        12544                       # Number of bytes written to this memory
system.mem_ctrls.bytes_written::gpu.shader_cores1.data        12672                       # Number of bytes written to this memory
system.mem_ctrls.bytes_written::gpu.shader_cores2.data        12544                       # Number of bytes written to this memory
system.mem_ctrls.bytes_written::gpu.shader_cores3.data        12544                       # Number of bytes written to this memory
system.mem_ctrls.bytes_written::gpu.ce          73052                       # Number of bytes written to this memory
system.mem_ctrls.bytes_written::cpu.data      4969927                       # Number of bytes written to this memory
system.mem_ctrls.bytes_written::total         5093283                       # Number of bytes written to this memory
system.mem_ctrls.num_reads::gpu.shader_cores0.data          422                       # Number of read requests responded to by this memory
system.mem_ctrls.num_reads::gpu.shader_cores0.inst           12                       # Number of read requests responded to by this memory
system.mem_ctrls.num_reads::gpu.shader_cores1.data          427                       # Number of read requests responded to by this memory
system.mem_ctrls.num_reads::gpu.shader_cores1.inst           13                       # Number of read requests responded to by this memory
system.mem_ctrls.num_reads::gpu.shader_cores2.data          422                       # Number of read requests responded to by this memory
system.mem_ctrls.num_reads::gpu.shader_cores2.inst           12                       # Number of read requests responded to by this memory
system.mem_ctrls.num_reads::gpu.shader_cores3.data          422                       # Number of read requests responded to by this memory
system.mem_ctrls.num_reads::gpu.shader_cores3.inst           12                       # Number of read requests responded to by this memory
system.mem_ctrls.num_reads::gpu.ce                577                       # Number of read requests responded to by this memory
system.mem_ctrls.num_reads::cpu.inst          6665111                       # Number of read requests responded to by this memory
system.mem_ctrls.num_reads::cpu.data          1297860                       # Number of read requests responded to by this memory
system.mem_ctrls.num_reads::total             7965290                       # Number of read requests responded to by this memory
system.mem_ctrls.num_writes::gpu.shader_cores0.data          314                       # Number of write requests responded to by this memory
system.mem_ctrls.num_writes::gpu.shader_cores1.data          316                       # Number of write requests responded to by this memory
system.mem_ctrls.num_writes::gpu.shader_cores2.data          314                       # Number of write requests responded to by this memory
system.mem_ctrls.num_writes::gpu.shader_cores3.data          314                       # Number of write requests responded to by this memory
system.mem_ctrls.num_writes::gpu.ce               576                       # Number of write requests responded to by this memory
system.mem_ctrls.num_writes::cpu.data          788149                       # Number of write requests responded to by this memory
system.mem_ctrls.num_writes::total             789983                       # Number of write requests responded to by this memory
system.mem_ctrls.bw_read::gpu.shader_cores0.data      2627996                       # Total read bandwidth from this memory (bytes/s)
system.mem_ctrls.bw_read::gpu.shader_cores0.inst        21659                       # Total read bandwidth from this memory (bytes/s)
system.mem_ctrls.bw_read::gpu.shader_cores1.data      2676127                       # Total read bandwidth from this memory (bytes/s)
system.mem_ctrls.bw_read::gpu.shader_cores1.inst        23464                       # Total read bandwidth from this memory (bytes/s)
system.mem_ctrls.bw_read::gpu.shader_cores2.data      2627996                       # Total read bandwidth from this memory (bytes/s)
system.mem_ctrls.bw_read::gpu.shader_cores2.inst        21659                       # Total read bandwidth from this memory (bytes/s)
system.mem_ctrls.bw_read::gpu.shader_cores3.data      2627996                       # Total read bandwidth from this memory (bytes/s)
system.mem_ctrls.bw_read::gpu.shader_cores3.inst        21659                       # Total read bandwidth from this memory (bytes/s)
system.mem_ctrls.bw_read::gpu.ce              5493943                       # Total read bandwidth from this memory (bytes/s)
system.mem_ctrls.bw_read::cpu.inst         4010046307                       # Total read bandwidth from this memory (bytes/s)
system.mem_ctrls.bw_read::cpu.data          599549923                       # Total read bandwidth from this memory (bytes/s)
system.mem_ctrls.bw_read::total            4625738729                       # Total read bandwidth from this memory (bytes/s)
system.mem_ctrls.bw_inst_read::gpu.shader_cores0.inst        21659                       # Instruction read bandwidth from this memory (bytes/s)
system.mem_ctrls.bw_inst_read::gpu.shader_cores1.inst        23464                       # Instruction read bandwidth from this memory (bytes/s)
system.mem_ctrls.bw_inst_read::gpu.shader_cores2.inst        21659                       # Instruction read bandwidth from this memory (bytes/s)
system.mem_ctrls.bw_inst_read::gpu.shader_cores3.inst        21659                       # Instruction read bandwidth from this memory (bytes/s)
system.mem_ctrls.bw_inst_read::cpu.inst    4010046307                       # Instruction read bandwidth from this memory (bytes/s)
system.mem_ctrls.bw_inst_read::total       4010134749                       # Instruction read bandwidth from this memory (bytes/s)
system.mem_ctrls.bw_write::gpu.shader_cores0.data       943383                       # Write bandwidth from this memory (bytes/s)
system.mem_ctrls.bw_write::gpu.shader_cores1.data       953009                       # Write bandwidth from this memory (bytes/s)
system.mem_ctrls.bw_write::gpu.shader_cores2.data       943383                       # Write bandwidth from this memory (bytes/s)
system.mem_ctrls.bw_write::gpu.shader_cores3.data       943383                       # Write bandwidth from this memory (bytes/s)
system.mem_ctrls.bw_write::gpu.ce             5493943                       # Write bandwidth from this memory (bytes/s)
system.mem_ctrls.bw_write::cpu.data         373767920                       # Write bandwidth from this memory (bytes/s)
system.mem_ctrls.bw_write::total            383045021                       # Write bandwidth from this memory (bytes/s)
system.mem_ctrls.bw_total::gpu.shader_cores0.data      3571379                       # Total bandwidth to/from this memory (bytes/s)
system.mem_ctrls.bw_total::gpu.shader_cores0.inst        21659                       # Total bandwidth to/from this memory (bytes/s)
system.mem_ctrls.bw_total::gpu.shader_cores1.data      3629137                       # Total bandwidth to/from this memory (bytes/s)
system.mem_ctrls.bw_total::gpu.shader_cores1.inst        23464                       # Total bandwidth to/from this memory (bytes/s)
system.mem_ctrls.bw_total::gpu.shader_cores2.data      3571379                       # Total bandwidth to/from this memory (bytes/s)
system.mem_ctrls.bw_total::gpu.shader_cores2.inst        21659                       # Total bandwidth to/from this memory (bytes/s)
system.mem_ctrls.bw_total::gpu.shader_cores3.data      3571379                       # Total bandwidth to/from this memory (bytes/s)
system.mem_ctrls.bw_total::gpu.shader_cores3.inst        21659                       # Total bandwidth to/from this memory (bytes/s)
system.mem_ctrls.bw_total::gpu.ce            10987885                       # Total bandwidth to/from this memory (bytes/s)
system.mem_ctrls.bw_total::cpu.inst        4010046307                       # Total bandwidth to/from this memory (bytes/s)
system.mem_ctrls.bw_total::cpu.data         973317843                       # Total bandwidth to/from this memory (bytes/s)
system.mem_ctrls.bw_total::total           5008783750                       # Total bandwidth to/from this memory (bytes/s)
system.ruby_clk_domain.clock                      500                       # Clock period in ticks
system.ruby.outstanding_req_hist::bucket_size            8                      
system.ruby.outstanding_req_hist::max_bucket           79                      
system.ruby.outstanding_req_hist::samples      8755274                      
system.ruby.outstanding_req_hist::mean       1.008907                      
system.ruby.outstanding_req_hist::gmean      1.000872                      
system.ruby.outstanding_req_hist::stdev      0.669076                      
system.ruby.outstanding_req_hist         |     8753348     99.98%     99.98% |         307      0.00%     99.98% |         242      0.00%     99.98% |         391      0.00%     99.99% |          68      0.00%     99.99% |          40      0.00%     99.99% |          59      0.00%     99.99% |          56      0.00%     99.99% |         763      0.01%    100.00% |           0      0.00%    100.00%
system.ruby.outstanding_req_hist::total       8755274                      
system.ruby.latency_hist::bucket_size             256                      
system.ruby.latency_hist::max_bucket             2559                      
system.ruby.latency_hist::samples             8755273                      
system.ruby.latency_hist::mean               2.201079                      
system.ruby.latency_hist::gmean              2.005635                      
system.ruby.latency_hist::stdev             15.277203                      
system.ruby.latency_hist                 |     8754080     99.99%     99.99% |         153      0.00%     99.99% |         135      0.00%     99.99% |         130      0.00%     99.99% |         184      0.00%     99.99% |         234      0.00%    100.00% |         227      0.00%    100.00% |         113      0.00%    100.00% |          14      0.00%    100.00% |           3      0.00%    100.00%
system.ruby.latency_hist::total               8755273                      
system.ruby.hit_latency_hist::bucket_size            2                      
system.ruby.hit_latency_hist::max_bucket           19                      
system.ruby.hit_latency_hist::samples         8752052                      
system.ruby.hit_latency_hist::mean           2.006694                      
system.ruby.hit_latency_hist::gmean          2.001992                      
system.ruby.hit_latency_hist::stdev          0.277293                      
system.ruby.hit_latency_hist             |        2405      0.03%      0.03% |     8744102     99.91%     99.94% |           0      0.00%     99.94% |           0      0.00%     99.94% |           0      0.00%     99.94% |           0      0.00%     99.94% |        5545      0.06%    100.00% |           0      0.00%    100.00% |           0      0.00%    100.00% |           0      0.00%    100.00%
system.ruby.hit_latency_hist::total           8752052                      
system.ruby.miss_latency_hist::bucket_size          256                      
system.ruby.miss_latency_hist::max_bucket         2559                      
system.ruby.miss_latency_hist::samples           3221                      
system.ruby.miss_latency_hist::mean        530.380938                      
system.ruby.miss_latency_hist::gmean       280.285026                      
system.ruby.miss_latency_hist::stdev       596.011518                      
system.ruby.miss_latency_hist            |        2028     62.96%     62.96% |         153      4.75%     67.71% |         135      4.19%     71.90% |         130      4.04%     75.94% |         184      5.71%     81.65% |         234      7.26%     88.92% |         227      7.05%     95.96% |         113      3.51%     99.47% |          14      0.43%     99.91% |           3      0.09%    100.00%
system.ruby.miss_latency_hist::total             3221                      
system.ruby.L1Cache.incomplete_times               18                      
system.ruby.l1_cntrl_ce.L1Dcache.demand_hits            0                       # Number of cache demand hits
system.ruby.l1_cntrl_ce.L1Dcache.demand_misses         1153                       # Number of cache demand misses
system.ruby.l1_cntrl_ce.L1Dcache.demand_accesses         1153                       # Number of cache demand accesses
system.ruby.l1_cntrl_ce.L1Icache.demand_hits            0                       # Number of cache demand hits
system.ruby.l1_cntrl_ce.L1Icache.demand_misses            0                       # Number of cache demand misses
system.ruby.l1_cntrl_ce.L1Icache.demand_accesses            0                       # Number of cache demand accesses
system.ruby.l1_cntrl_ce.L2cache.demand_hits            0                       # Number of cache demand hits
system.ruby.l1_cntrl_ce.L2cache.demand_misses         1153                       # Number of cache demand misses
system.ruby.l1_cntrl_ce.L2cache.demand_accesses         1153                       # Number of cache demand accesses
system.ruby.l1_cntrl_ce.fully_busy_cycles          630                       # cycles for which number of transistions == max transitions
system.ruby.l1_cntrl0.L1Dcache.demand_hits      2084521                       # Number of cache demand hits
system.ruby.l1_cntrl0.L1Dcache.demand_misses         1488                       # Number of cache demand misses
system.ruby.l1_cntrl0.L1Dcache.demand_accesses      2086009                       # Number of cache demand accesses
system.ruby.l1_cntrl0.L1Icache.demand_hits      6659581                       # Number of cache demand hits
system.ruby.l1_cntrl0.L1Icache.demand_misses         5530                       # Number of cache demand misses
system.ruby.l1_cntrl0.L1Icache.demand_accesses      6665111                       # Number of cache demand accesses
system.ruby.l1_cntrl0.L2cache.demand_hits         5545                       # Number of cache demand hits
system.ruby.l1_cntrl0.L2cache.demand_misses         1473                       # Number of cache demand misses
system.ruby.l1_cntrl0.L2cache.demand_accesses         7018                       # Number of cache demand accesses
system.ruby.network.routers0.percent_links_utilized     0.042685                      
system.ruby.network.routers0.msg_count.Request_Control::2         1473                      
system.ruby.network.routers0.msg_count.Request_Control::3            1                      
system.ruby.network.routers0.msg_count.Response_Data::4         1794                      
system.ruby.network.routers0.msg_count.Response_Control::4        10231                      
system.ruby.network.routers0.msg_count.Broadcast_Control::3         1730                      
system.ruby.network.routers0.msg_count.Unblock_Control::5         1473                      
system.ruby.network.routers0.msg_bytes.Request_Control::2        11784                      
system.ruby.network.routers0.msg_bytes.Request_Control::3            8                      
system.ruby.network.routers0.msg_bytes.Response_Data::4       243984                      
system.ruby.network.routers0.msg_bytes.Response_Control::4        81848                      
system.ruby.network.routers0.msg_bytes.Broadcast_Control::3        13840                      
system.ruby.network.routers0.msg_bytes.Unblock_Control::5        11784                      
system.ruby.dir_cntrl0.memBuffer.clk_domain.clock         2500                       # Clock period in ticks
system.ruby.dir_cntrl0.memBuffer.memReq          3331                       # Total number of memory requests
system.ruby.dir_cntrl0.memBuffer.memRead         2398                       # Number of memory reads
system.ruby.dir_cntrl0.memBuffer.memWrite          933                       # Number of memory writes
system.ruby.dir_cntrl0.memBuffer.memRefresh        12190                       # Number of memory refreshes
system.ruby.dir_cntrl0.memBuffer.memWaitCycles        29186                       # Delay stalled at the head of the bank queue
system.ruby.dir_cntrl0.memBuffer.memInputQ         7553                       # Delay in the input queue
system.ruby.dir_cntrl0.memBuffer.memBankQ        25378                       # Delay behind the head of the bank queue
system.ruby.dir_cntrl0.memBuffer.totalStalls        62117                       # Total number of stall cycles
system.ruby.dir_cntrl0.memBuffer.stallsPerReq    18.648154                       # Expected number of stall cycles per request
system.ruby.dir_cntrl0.memBuffer.memBankBusy         5029                       # memory stalls due to busy bank
system.ruby.dir_cntrl0.memBuffer.memBusBusy         8959                       # memory stalls due to busy bus
system.ruby.dir_cntrl0.memBuffer.memReadWriteBusy         1395                       # memory stalls due to read write turnaround
system.ruby.dir_cntrl0.memBuffer.memDataBusBusy         1966                       # memory stalls due to read read turnaround
system.ruby.dir_cntrl0.memBuffer.memArbWait         5933                       # memory stalls due to arbitration
system.ruby.dir_cntrl0.memBuffer.memNotOld         5904                       # memory stalls due to anti starvation
system.ruby.dir_cntrl0.memBuffer.memBankCount |          99      2.97%      2.97% |         100      3.00%      5.97% |          98      2.94%      8.92% |         104      3.12%     12.04% |          95      2.85%     14.89% |         105      3.15%     18.04% |         101      3.03%     21.07% |         104      3.12%     24.20% |         103      3.09%     27.29% |         103      3.09%     30.38% |         108      3.24%     33.62% |         101      3.03%     36.66% |          98      2.94%     39.60% |          97      2.91%     42.51% |         101      3.03%     45.54% |         100      3.00%     48.54% |         106      3.18%     51.73% |         108      3.24%     54.97% |         106      3.18%     58.15% |         110      3.30%     61.45% |         103      3.09%     64.55% |         104      3.12%     67.67% |         111      3.33%     71.00% |         115      3.45%     74.45% |         121      3.63%     78.08% |         114      3.42%     81.51% |         109      3.27%     84.78% |         106      3.18%     87.96% |          98      2.94%     90.90% |          98      2.94%     93.85% |         104      3.12%     96.97% |         101      3.03%    100.00% # Number of accesses per bank
system.ruby.dir_cntrl0.memBuffer.memBankCount::total         3331                       # Number of accesses per bank
system.ruby.dir_cntrl0.probeFilter.demand_hits            0                       # Number of cache demand hits
system.ruby.dir_cntrl0.probeFilter.demand_misses            0                       # Number of cache demand misses
system.ruby.dir_cntrl0.probeFilter.demand_accesses            0                       # Number of cache demand accesses
system.ruby.dir_cntrl0.fully_busy_cycles            1                       # cycles for which number of transistions == max transitions
system.ruby.network.routers1.percent_links_utilized     0.064436                      
system.ruby.network.routers1.msg_count.Request_Control::2         3221                      
system.ruby.network.routers1.msg_count.Request_Control::3           10                      
system.ruby.network.routers1.msg_count.Response_Data::4         2398                      
system.ruby.network.routers1.msg_count.Writeback_Data::5          933                      
system.ruby.network.routers1.msg_count.Writeback_Control::2         1065                      
system.ruby.network.routers1.msg_count.Writeback_Control::3         1065                      
system.ruby.network.routers1.msg_count.Writeback_Control::5          132                      
system.ruby.network.routers1.msg_count.Broadcast_Control::3         3203                      
system.ruby.network.routers1.msg_count.Unblock_Control::5         3221                      
system.ruby.network.routers1.msg_bytes.Request_Control::2        25768                      
system.ruby.network.routers1.msg_bytes.Request_Control::3           80                      
system.ruby.network.routers1.msg_bytes.Response_Data::4       326128                      
system.ruby.network.routers1.msg_bytes.Writeback_Data::5       126888                      
system.ruby.network.routers1.msg_bytes.Writeback_Control::2         8520                      
system.ruby.network.routers1.msg_bytes.Writeback_Control::3         8520                      
system.ruby.network.routers1.msg_bytes.Writeback_Control::5         1056                      
system.ruby.network.routers1.msg_bytes.Broadcast_Control::3        25624                      
system.ruby.network.routers1.msg_bytes.Unblock_Control::5        25768                      
system.ruby.l1_cntrl_sp00.L1Dcache.demand_hits          612                       # Number of cache demand hits
system.ruby.l1_cntrl_sp00.L1Dcache.demand_misses          124                       # Number of cache demand misses
system.ruby.l1_cntrl_sp00.L1Dcache.demand_accesses          736                       # Number of cache demand accesses
system.ruby.l1_cntrl_sp00.L1Icache.demand_hits            0                       # Number of cache demand hits
system.ruby.l1_cntrl_sp00.L1Icache.demand_misses           12                       # Number of cache demand misses
system.ruby.l1_cntrl_sp00.L1Icache.demand_accesses           12                       # Number of cache demand accesses
system.ruby.l1_cntrl_sp00.L2cache.demand_hits            0                       # Number of cache demand hits
system.ruby.l1_cntrl_sp00.L2cache.demand_misses          136                       # Number of cache demand misses
system.ruby.l1_cntrl_sp00.L2cache.demand_accesses          136                       # Number of cache demand accesses
system.ruby.network.routers2.percent_links_utilized     0.010346                      
system.ruby.network.routers2.msg_count.Request_Control::2          136                      
system.ruby.network.routers2.msg_count.Request_Control::3            3                      
system.ruby.network.routers2.msg_count.Response_Data::4          232                      
system.ruby.network.routers2.msg_count.Response_Control::4         3714                      
system.ruby.network.routers2.msg_count.Broadcast_Control::3         3073                      
system.ruby.network.routers2.msg_count.Unblock_Control::5          136                      
system.ruby.network.routers2.msg_bytes.Request_Control::2         1088                      
system.ruby.network.routers2.msg_bytes.Request_Control::3           24                      
system.ruby.network.routers2.msg_bytes.Response_Data::4        31552                      
system.ruby.network.routers2.msg_bytes.Response_Control::4        29712                      
system.ruby.network.routers2.msg_bytes.Broadcast_Control::3        24584                      
system.ruby.network.routers2.msg_bytes.Unblock_Control::5         1088                      
system.ruby.l1_cntrl_sp01.L1Dcache.demand_hits          597                       # Number of cache demand hits
system.ruby.l1_cntrl_sp01.L1Dcache.demand_misses          146                       # Number of cache demand misses
system.ruby.l1_cntrl_sp01.L1Dcache.demand_accesses          743                       # Number of cache demand accesses
system.ruby.l1_cntrl_sp01.L1Icache.demand_hits            0                       # Number of cache demand hits
system.ruby.l1_cntrl_sp01.L1Icache.demand_misses           13                       # Number of cache demand misses
system.ruby.l1_cntrl_sp01.L1Icache.demand_accesses           13                       # Number of cache demand accesses
system.ruby.l1_cntrl_sp01.L2cache.demand_hits            0                       # Number of cache demand hits
system.ruby.l1_cntrl_sp01.L2cache.demand_misses          159                       # Number of cache demand misses
system.ruby.l1_cntrl_sp01.L2cache.demand_accesses          159                       # Number of cache demand accesses
system.ruby.network.routers3.percent_links_utilized     0.010984                      
system.ruby.network.routers3.msg_count.Request_Control::2          159                      
system.ruby.network.routers3.msg_count.Request_Control::3            3                      
system.ruby.network.routers3.msg_count.Response_Data::4          264                      
system.ruby.network.routers3.msg_count.Response_Control::4         3828                      
system.ruby.network.routers3.msg_count.Broadcast_Control::3         3047                      
system.ruby.network.routers3.msg_count.Unblock_Control::5          159                      
system.ruby.network.routers3.msg_bytes.Request_Control::2         1272                      
system.ruby.network.routers3.msg_bytes.Request_Control::3           24                      
system.ruby.network.routers3.msg_bytes.Response_Data::4        35904                      
system.ruby.network.routers3.msg_bytes.Response_Control::4        30624                      
system.ruby.network.routers3.msg_bytes.Broadcast_Control::3        24376                      
system.ruby.network.routers3.msg_bytes.Unblock_Control::5         1272                      
system.ruby.l1_cntrl_sp02.L1Dcache.demand_hits          609                       # Number of cache demand hits
system.ruby.l1_cntrl_sp02.L1Dcache.demand_misses          127                       # Number of cache demand misses
system.ruby.l1_cntrl_sp02.L1Dcache.demand_accesses          736                       # Number of cache demand accesses
system.ruby.l1_cntrl_sp02.L1Icache.demand_hits            0                       # Number of cache demand hits
system.ruby.l1_cntrl_sp02.L1Icache.demand_misses           12                       # Number of cache demand misses
system.ruby.l1_cntrl_sp02.L1Icache.demand_accesses           12                       # Number of cache demand accesses
system.ruby.l1_cntrl_sp02.L2cache.demand_hits            0                       # Number of cache demand hits
system.ruby.l1_cntrl_sp02.L2cache.demand_misses          139                       # Number of cache demand misses
system.ruby.l1_cntrl_sp02.L2cache.demand_accesses          139                       # Number of cache demand accesses
system.ruby.network.routers4.percent_links_utilized     0.010286                      
system.ruby.network.routers4.msg_count.Request_Control::2          139                      
system.ruby.network.routers4.msg_count.Request_Control::3            1                      
system.ruby.network.routers4.msg_count.Response_Data::4          225                      
system.ruby.network.routers4.msg_count.Response_Control::4         3772                      
system.ruby.network.routers4.msg_count.Broadcast_Control::3         3066                      
system.ruby.network.routers4.msg_count.Unblock_Control::5          139                      
system.ruby.network.routers4.msg_bytes.Request_Control::2         1112                      
system.ruby.network.routers4.msg_bytes.Request_Control::3            8                      
system.ruby.network.routers4.msg_bytes.Response_Data::4        30600                      
system.ruby.network.routers4.msg_bytes.Response_Control::4        30176                      
system.ruby.network.routers4.msg_bytes.Broadcast_Control::3        24528                      
system.ruby.network.routers4.msg_bytes.Unblock_Control::5         1112                      
system.ruby.l1_cntrl_sp03.L1Dcache.demand_hits          587                       # Number of cache demand hits
system.ruby.l1_cntrl_sp03.L1Dcache.demand_misses          149                       # Number of cache demand misses
system.ruby.l1_cntrl_sp03.L1Dcache.demand_accesses          736                       # Number of cache demand accesses
system.ruby.l1_cntrl_sp03.L1Icache.demand_hits            0                       # Number of cache demand hits
system.ruby.l1_cntrl_sp03.L1Icache.demand_misses           12                       # Number of cache demand misses
system.ruby.l1_cntrl_sp03.L1Icache.demand_accesses           12                       # Number of cache demand accesses
system.ruby.l1_cntrl_sp03.L2cache.demand_hits            0                       # Number of cache demand hits
system.ruby.l1_cntrl_sp03.L2cache.demand_misses          161                       # Number of cache demand misses
system.ruby.l1_cntrl_sp03.L2cache.demand_accesses          161                       # Number of cache demand accesses
system.ruby.network.routers5.percent_links_utilized     0.010952                      
system.ruby.network.routers5.msg_count.Request_Control::2          161                      
system.ruby.network.routers5.msg_count.Request_Control::3            2                      
system.ruby.network.routers5.msg_count.Response_Data::4          262                      
system.ruby.network.routers5.msg_count.Response_Control::4         3823                      
system.ruby.network.routers5.msg_count.Broadcast_Control::3         3049                      
system.ruby.network.routers5.msg_count.Unblock_Control::5          161                      
system.ruby.network.routers5.msg_bytes.Request_Control::2         1288                      
system.ruby.network.routers5.msg_bytes.Request_Control::3           16                      
system.ruby.network.routers5.msg_bytes.Response_Data::4        35632                      
system.ruby.network.routers5.msg_bytes.Response_Control::4        30584                      
system.ruby.network.routers5.msg_bytes.Broadcast_Control::3        24392                      
system.ruby.network.routers5.msg_bytes.Unblock_Control::5         1288                      
system.ruby.l1_pw_cntrl.L1Dcache.demand_hits            0                       # Number of cache demand hits
system.ruby.l1_pw_cntrl.L1Dcache.demand_misses            0                       # Number of cache demand misses
system.ruby.l1_pw_cntrl.L1Dcache.demand_accesses            0                       # Number of cache demand accesses
system.ruby.l1_pw_cntrl.L1Icache.demand_hits            0                       # Number of cache demand hits
system.ruby.l1_pw_cntrl.L1Icache.demand_misses            0                       # Number of cache demand misses
system.ruby.l1_pw_cntrl.L1Icache.demand_accesses            0                       # Number of cache demand accesses
system.ruby.l1_pw_cntrl.L2cache.demand_hits            0                       # Number of cache demand hits
system.ruby.l1_pw_cntrl.L2cache.demand_misses            0                       # Number of cache demand misses
system.ruby.l1_pw_cntrl.L2cache.demand_accesses            0                       # Number of cache demand accesses
system.ruby.network.routers6.percent_links_utilized     0.006022                      
system.ruby.network.routers6.msg_count.Response_Control::4         3203                      
system.ruby.network.routers6.msg_count.Broadcast_Control::3         3203                      
system.ruby.network.routers6.msg_bytes.Response_Control::4        25624                      
system.ruby.network.routers6.msg_bytes.Broadcast_Control::3        25624                      
system.ruby.network.routers7.percent_links_utilized     0.048200                      
system.ruby.network.routers7.msg_count.Request_Control::2         1153                      
system.ruby.network.routers7.msg_count.Response_Data::4         1205                      
system.ruby.network.routers7.msg_count.Response_Control::4         8309                      
system.ruby.network.routers7.msg_count.Writeback_Data::5          933                      
system.ruby.network.routers7.msg_count.Writeback_Control::2         1065                      
system.ruby.network.routers7.msg_count.Writeback_Control::3         1065                      
system.ruby.network.routers7.msg_count.Writeback_Control::5          132                      
system.ruby.network.routers7.msg_count.Broadcast_Control::3         2050                      
system.ruby.network.routers7.msg_count.Unblock_Control::5         1153                      
system.ruby.network.routers7.msg_bytes.Request_Control::2         9224                      
system.ruby.network.routers7.msg_bytes.Response_Data::4       163880                      
system.ruby.network.routers7.msg_bytes.Response_Control::4        66472                      
system.ruby.network.routers7.msg_bytes.Writeback_Data::5       126888                      
system.ruby.network.routers7.msg_bytes.Writeback_Control::2         8520                      
system.ruby.network.routers7.msg_bytes.Writeback_Control::3         8520                      
system.ruby.network.routers7.msg_bytes.Writeback_Control::5         1056                      
system.ruby.network.routers7.msg_bytes.Broadcast_Control::3        16400                      
system.ruby.network.routers7.msg_bytes.Unblock_Control::5         9224                      
system.ruby.network.routers8.percent_links_utilized     0.027387                      
system.ruby.network.routers8.msg_count.Request_Control::2         3221                      
system.ruby.network.routers8.msg_count.Request_Control::3           10                      
system.ruby.network.routers8.msg_count.Response_Data::4         3194                      
system.ruby.network.routers8.msg_count.Response_Control::4        18440                      
system.ruby.network.routers8.msg_count.Writeback_Data::5          933                      
system.ruby.network.routers8.msg_count.Writeback_Control::2         1065                      
system.ruby.network.routers8.msg_count.Writeback_Control::3         1065                      
system.ruby.network.routers8.msg_count.Writeback_Control::5          132                      
system.ruby.network.routers8.msg_count.Broadcast_Control::3        19218                      
system.ruby.network.routers8.msg_count.Unblock_Control::5         3221                      
system.ruby.network.routers8.msg_bytes.Request_Control::2        25768                      
system.ruby.network.routers8.msg_bytes.Request_Control::3           80                      
system.ruby.network.routers8.msg_bytes.Response_Data::4       434384                      
system.ruby.network.routers8.msg_bytes.Response_Control::4       147520                      
system.ruby.network.routers8.msg_bytes.Writeback_Data::5       126888                      
system.ruby.network.routers8.msg_bytes.Writeback_Control::2         8520                      
system.ruby.network.routers8.msg_bytes.Writeback_Control::3         8520                      
system.ruby.network.routers8.msg_bytes.Writeback_Control::5         1056                      
system.ruby.network.routers8.msg_bytes.Broadcast_Control::3       153744                      
system.ruby.network.routers8.msg_bytes.Unblock_Control::5        25768                      
system.ruby.network.msg_count.Request_Control         9693                      
system.ruby.network.msg_count.Response_Data         9574                      
system.ruby.network.msg_count.Response_Control        55320                      
system.ruby.network.msg_count.Writeback_Data         2799                      
system.ruby.network.msg_count.Writeback_Control         6786                      
system.ruby.network.msg_count.Broadcast_Control        41639                      
system.ruby.network.msg_count.Unblock_Control         9663                      
system.ruby.network.msg_byte.Request_Control        77544                      
system.ruby.network.msg_byte.Response_Data      1302064                      
system.ruby.network.msg_byte.Response_Control       442560                      
system.ruby.network.msg_byte.Writeback_Data       380664                      
system.ruby.network.msg_byte.Writeback_Control        54288                      
system.ruby.network.msg_byte.Broadcast_Control       333112                      
system.ruby.network.msg_byte.Unblock_Control        77304                      
system.ruby.memctrl_clk_domain.clock             1500                       # Clock period in ticks
system.cpu_voltage_domain.voltage                   1                       # Voltage in Volts
system.gpu.voltage_domain.voltage                   1                       # Voltage in Volts
system.gpu.clk_domain.clock                      1429                       # Clock period in ticks
system.gpu.shader_mmu.numPagefaults                 0                       # Number of Pagefaults
system.gpu.shader_mmu.numPagewalks                167                       # Number of Pagewalks
system.gpu.shader_mmu.totalRequests               167                       # Total number of requests
system.gpu.shader_mmu.retryFailures                 0                       # Times the retry walk after a pagefault failed
system.gpu.shader_mmu.l2hits                        0                       # Hits in the shared L2
system.gpu.shader_mmu.prefetchHits                  0                       # Number of prefetch hits
system.gpu.shader_mmu.numPrefetches                 0                       # Number of prefetchs
system.gpu.shader_mmu.prefetchFaults                0                       # Number of faults caused by prefetches
system.gpu.shader_mmu.pagefaultLatency::samples            0                       # Latency to complete the pagefault
system.gpu.shader_mmu.pagefaultLatency::mean          nan                       # Latency to complete the pagefault
system.gpu.shader_mmu.pagefaultLatency::gmean          nan                       # Latency to complete the pagefault
system.gpu.shader_mmu.pagefaultLatency::stdev          nan                       # Latency to complete the pagefault
system.gpu.shader_mmu.pagefaultLatency::0            0                       # Latency to complete the pagefault
system.gpu.shader_mmu.pagefaultLatency::1            0                       # Latency to complete the pagefault
system.gpu.shader_mmu.pagefaultLatency::2            0                       # Latency to complete the pagefault
system.gpu.shader_mmu.pagefaultLatency::3            0                       # Latency to complete the pagefault
system.gpu.shader_mmu.pagefaultLatency::4            0                       # Latency to complete the pagefault
system.gpu.shader_mmu.pagefaultLatency::5            0                       # Latency to complete the pagefault
system.gpu.shader_mmu.pagefaultLatency::6            0                       # Latency to complete the pagefault
system.gpu.shader_mmu.pagefaultLatency::7            0                       # Latency to complete the pagefault
system.gpu.shader_mmu.pagefaultLatency::8            0                       # Latency to complete the pagefault
system.gpu.shader_mmu.pagefaultLatency::9            0                       # Latency to complete the pagefault
system.gpu.shader_mmu.pagefaultLatency::10            0                       # Latency to complete the pagefault
system.gpu.shader_mmu.pagefaultLatency::11            0                       # Latency to complete the pagefault
system.gpu.shader_mmu.pagefaultLatency::12            0                       # Latency to complete the pagefault
system.gpu.shader_mmu.pagefaultLatency::13            0                       # Latency to complete the pagefault
system.gpu.shader_mmu.pagefaultLatency::14            0                       # Latency to complete the pagefault
system.gpu.shader_mmu.pagefaultLatency::15            0                       # Latency to complete the pagefault
system.gpu.shader_mmu.pagefaultLatency::16            0                       # Latency to complete the pagefault
system.gpu.shader_mmu.pagefaultLatency::17            0                       # Latency to complete the pagefault
system.gpu.shader_mmu.pagefaultLatency::18            0                       # Latency to complete the pagefault
system.gpu.shader_mmu.pagefaultLatency::19            0                       # Latency to complete the pagefault
system.gpu.shader_mmu.pagefaultLatency::20            0                       # Latency to complete the pagefault
system.gpu.shader_mmu.pagefaultLatency::21            0                       # Latency to complete the pagefault
system.gpu.shader_mmu.pagefaultLatency::22            0                       # Latency to complete the pagefault
system.gpu.shader_mmu.pagefaultLatency::23            0                       # Latency to complete the pagefault
system.gpu.shader_mmu.pagefaultLatency::24            0                       # Latency to complete the pagefault
system.gpu.shader_mmu.pagefaultLatency::25            0                       # Latency to complete the pagefault
system.gpu.shader_mmu.pagefaultLatency::26            0                       # Latency to complete the pagefault
system.gpu.shader_mmu.pagefaultLatency::27            0                       # Latency to complete the pagefault
system.gpu.shader_mmu.pagefaultLatency::28            0                       # Latency to complete the pagefault
system.gpu.shader_mmu.pagefaultLatency::29            0                       # Latency to complete the pagefault
system.gpu.shader_mmu.pagefaultLatency::30            0                       # Latency to complete the pagefault
system.gpu.shader_mmu.pagefaultLatency::31            0                       # Latency to complete the pagefault
system.gpu.shader_mmu.pagefaultLatency::total            0                       # Latency to complete the pagefault
system.gpu.shader_mmu.concurrentWalks::samples          167                       # Number of outstanding walks
system.gpu.shader_mmu.concurrentWalks::mean            0                       # Number of outstanding walks
system.gpu.shader_mmu.concurrentWalks::gmean            0                       # Number of outstanding walks
system.gpu.shader_mmu.concurrentWalks::stdev            0                       # Number of outstanding walks
system.gpu.shader_mmu.concurrentWalks::0          167    100.00%    100.00% # Number of outstanding walks
system.gpu.shader_mmu.concurrentWalks::1            0      0.00%    100.00% # Number of outstanding walks
system.gpu.shader_mmu.concurrentWalks::2            0      0.00%    100.00% # Number of outstanding walks
system.gpu.shader_mmu.concurrentWalks::3            0      0.00%    100.00% # Number of outstanding walks
system.gpu.shader_mmu.concurrentWalks::4            0      0.00%    100.00% # Number of outstanding walks
system.gpu.shader_mmu.concurrentWalks::5            0      0.00%    100.00% # Number of outstanding walks
system.gpu.shader_mmu.concurrentWalks::6            0      0.00%    100.00% # Number of outstanding walks
system.gpu.shader_mmu.concurrentWalks::7            0      0.00%    100.00% # Number of outstanding walks
system.gpu.shader_mmu.concurrentWalks::8            0      0.00%    100.00% # Number of outstanding walks
system.gpu.shader_mmu.concurrentWalks::9            0      0.00%    100.00% # Number of outstanding walks
system.gpu.shader_mmu.concurrentWalks::10            0      0.00%    100.00% # Number of outstanding walks
system.gpu.shader_mmu.concurrentWalks::11            0      0.00%    100.00% # Number of outstanding walks
system.gpu.shader_mmu.concurrentWalks::12            0      0.00%    100.00% # Number of outstanding walks
system.gpu.shader_mmu.concurrentWalks::13            0      0.00%    100.00% # Number of outstanding walks
system.gpu.shader_mmu.concurrentWalks::14            0      0.00%    100.00% # Number of outstanding walks
system.gpu.shader_mmu.concurrentWalks::15            0      0.00%    100.00% # Number of outstanding walks
system.gpu.shader_mmu.concurrentWalks::total          167                       # Number of outstanding walks
system.gpu.shader_mmu.pagewalkLatency::samples          167                       # Latency to complete the pagewalk
system.gpu.shader_mmu.pagewalkLatency::mean            0                       # Latency to complete the pagewalk
system.gpu.shader_mmu.pagewalkLatency::gmean            0                       # Latency to complete the pagewalk
system.gpu.shader_mmu.pagewalkLatency::stdev            0                       # Latency to complete the pagewalk
system.gpu.shader_mmu.pagewalkLatency::0          167    100.00%    100.00% # Latency to complete the pagewalk
system.gpu.shader_mmu.pagewalkLatency::1            0      0.00%    100.00% # Latency to complete the pagewalk
system.gpu.shader_mmu.pagewalkLatency::2            0      0.00%    100.00% # Latency to complete the pagewalk
system.gpu.shader_mmu.pagewalkLatency::3            0      0.00%    100.00% # Latency to complete the pagewalk
system.gpu.shader_mmu.pagewalkLatency::4            0      0.00%    100.00% # Latency to complete the pagewalk
system.gpu.shader_mmu.pagewalkLatency::5            0      0.00%    100.00% # Latency to complete the pagewalk
system.gpu.shader_mmu.pagewalkLatency::6            0      0.00%    100.00% # Latency to complete the pagewalk
system.gpu.shader_mmu.pagewalkLatency::7            0      0.00%    100.00% # Latency to complete the pagewalk
system.gpu.shader_mmu.pagewalkLatency::8            0      0.00%    100.00% # Latency to complete the pagewalk
system.gpu.shader_mmu.pagewalkLatency::9            0      0.00%    100.00% # Latency to complete the pagewalk
system.gpu.shader_mmu.pagewalkLatency::10            0      0.00%    100.00% # Latency to complete the pagewalk
system.gpu.shader_mmu.pagewalkLatency::11            0      0.00%    100.00% # Latency to complete the pagewalk
system.gpu.shader_mmu.pagewalkLatency::12            0      0.00%    100.00% # Latency to complete the pagewalk
system.gpu.shader_mmu.pagewalkLatency::13            0      0.00%    100.00% # Latency to complete the pagewalk
system.gpu.shader_mmu.pagewalkLatency::14            0      0.00%    100.00% # Latency to complete the pagewalk
system.gpu.shader_mmu.pagewalkLatency::15            0      0.00%    100.00% # Latency to complete the pagewalk
system.gpu.shader_mmu.pagewalkLatency::16            0      0.00%    100.00% # Latency to complete the pagewalk
system.gpu.shader_mmu.pagewalkLatency::17            0      0.00%    100.00% # Latency to complete the pagewalk
system.gpu.shader_mmu.pagewalkLatency::18            0      0.00%    100.00% # Latency to complete the pagewalk
system.gpu.shader_mmu.pagewalkLatency::19            0      0.00%    100.00% # Latency to complete the pagewalk
system.gpu.shader_mmu.pagewalkLatency::20            0      0.00%    100.00% # Latency to complete the pagewalk
system.gpu.shader_mmu.pagewalkLatency::21            0      0.00%    100.00% # Latency to complete the pagewalk
system.gpu.shader_mmu.pagewalkLatency::22            0      0.00%    100.00% # Latency to complete the pagewalk
system.gpu.shader_mmu.pagewalkLatency::23            0      0.00%    100.00% # Latency to complete the pagewalk
system.gpu.shader_mmu.pagewalkLatency::24            0      0.00%    100.00% # Latency to complete the pagewalk
system.gpu.shader_mmu.pagewalkLatency::25            0      0.00%    100.00% # Latency to complete the pagewalk
system.gpu.shader_mmu.pagewalkLatency::26            0      0.00%    100.00% # Latency to complete the pagewalk
system.gpu.shader_mmu.pagewalkLatency::27            0      0.00%    100.00% # Latency to complete the pagewalk
system.gpu.shader_mmu.pagewalkLatency::28            0      0.00%    100.00% # Latency to complete the pagewalk
system.gpu.shader_mmu.pagewalkLatency::29            0      0.00%    100.00% # Latency to complete the pagewalk
system.gpu.shader_mmu.pagewalkLatency::30            0      0.00%    100.00% # Latency to complete the pagewalk
system.gpu.shader_mmu.pagewalkLatency::31            0      0.00%    100.00% # Latency to complete the pagewalk
system.gpu.shader_mmu.pagewalkLatency::total          167                       # Latency to complete the pagewalk
system.gpu.kernels_completed                        2                       # Number of kernels completed
system.gpu.shader_cores0.itb.hits                   0                       # Number of hits in this TLB
system.gpu.shader_cores0.itb.misses                 0                       # Number of misses in this TLB
system.gpu.shader_cores0.itb.hitRate              nan                       # Hit rate for this TLB
system.gpu.shader_cores0.local_loads                0                       # Number of loads from local space
system.gpu.shader_cores0.local_stores               0                       # Number of stores to local space
system.gpu.shader_cores0.shared_loads            5056                       # Number of loads from shared space
system.gpu.shader_cores0.shared_stores           3072                       # Number of stores to shared space
system.gpu.shader_cores0.param_kernel_loads         7296                       # Number of loads from kernel parameter space
system.gpu.shader_cores0.param_local_loads            0                       # Number of loads from local parameter space
system.gpu.shader_cores0.param_local_stores            0                       # Number of stores to local parameter space
system.gpu.shader_cores0.const_loads                0                       # Number of loads from constant space
system.gpu.shader_cores0.tex_loads                  0                       # Number of loads from texture space
system.gpu.shader_cores0.global_loads            8256                       # Number of loads from global space
system.gpu.shader_cores0.global_stores           3136                       # Number of stores to global space
system.gpu.shader_cores0.surf_loads                 0                       # Number of loads from surface space
system.gpu.shader_cores0.generic_loads              0                       # Number of loads from generic spaces (global, shared, local)
system.gpu.shader_cores0.generic_stores             0                       # Number of stores to generic spaces (global, shared, local)
system.gpu.shader_cores0.inst_cache_requests           12                       # Number of instruction cache requests sent
system.gpu.shader_cores0.inst_cache_retries            0                       # Number of instruction cache retries
system.gpu.shader_cores0.inst_counts::0             0                       # Inst counts: 1: ALU, 2: MAD, 3: CTRL, 4: SFU, 5: MEM, 6: TEX, 7: NOP
system.gpu.shader_cores0.inst_counts::1        130176                       # Inst counts: 1: ALU, 2: MAD, 3: CTRL, 4: SFU, 5: MEM, 6: TEX, 7: NOP
system.gpu.shader_cores0.inst_counts::2          2048                       # Inst counts: 1: ALU, 2: MAD, 3: CTRL, 4: SFU, 5: MEM, 6: TEX, 7: NOP
system.gpu.shader_cores0.inst_counts::3         20416                       # Inst counts: 1: ALU, 2: MAD, 3: CTRL, 4: SFU, 5: MEM, 6: TEX, 7: NOP
system.gpu.shader_cores0.inst_counts::4          6144                       # Inst counts: 1: ALU, 2: MAD, 3: CTRL, 4: SFU, 5: MEM, 6: TEX, 7: NOP
system.gpu.shader_cores0.inst_counts::5         26816                       # Inst counts: 1: ALU, 2: MAD, 3: CTRL, 4: SFU, 5: MEM, 6: TEX, 7: NOP
system.gpu.shader_cores0.inst_counts::6             0                       # Inst counts: 1: ALU, 2: MAD, 3: CTRL, 4: SFU, 5: MEM, 6: TEX, 7: NOP
system.gpu.shader_cores0.inst_counts::7             0                       # Inst counts: 1: ALU, 2: MAD, 3: CTRL, 4: SFU, 5: MEM, 6: TEX, 7: NOP
system.gpu.shader_cores0.activeCycles            7396                       # Number of cycles this shader was executing a CTA
system.gpu.shader_cores0.notStalledCycles         5861                       # Number of cycles this shader was actually executing at least one instance
system.gpu.shader_cores0.instInstances         185600                       # Total instructions executed by all PEs in the core
system.gpu.shader_cores0.instPerCycle       25.094646                       # Instruction instances per cycle
system.gpu.shader_cores0.kernels_completed            2                       # Number of kernels completed
system.gpu.shader_cores0.lsq.data_tlb.hits            0                       # Number of hits in this TLB
system.gpu.shader_cores0.lsq.data_tlb.misses            0                       # Number of misses in this TLB
system.gpu.shader_cores0.lsq.data_tlb.hitRate          nan                       # Hit rate for this TLB
system.gpu.shader_cores0.lsq.warpInstBufActive::samples      8930836                       # Histogram of number of active warp inst buffers at a given time
system.gpu.shader_cores0.lsq.warpInstBufActive::mean     4.585565                       # Histogram of number of active warp inst buffers at a given time
system.gpu.shader_cores0.lsq.warpInstBufActive::gmean          nan                       # Histogram of number of active warp inst buffers at a given time
system.gpu.shader_cores0.lsq.warpInstBufActive::stdev     7.372384                       # Histogram of number of active warp inst buffers at a given time
system.gpu.shader_cores0.lsq.warpInstBufActive::0      5101188     57.12%     57.12% # Histogram of number of active warp inst buffers at a given time
system.gpu.shader_cores0.lsq.warpInstBufActive::1       390245      4.37%     61.49% # Histogram of number of active warp inst buffers at a given time
system.gpu.shader_cores0.lsq.warpInstBufActive::2       371364      4.16%     65.65% # Histogram of number of active warp inst buffers at a given time
system.gpu.shader_cores0.lsq.warpInstBufActive::3       267118      2.99%     68.64% # Histogram of number of active warp inst buffers at a given time
system.gpu.shader_cores0.lsq.warpInstBufActive::4       234703      2.63%     71.27% # Histogram of number of active warp inst buffers at a given time
system.gpu.shader_cores0.lsq.warpInstBufActive::5        98597      1.10%     72.37% # Histogram of number of active warp inst buffers at a given time
system.gpu.shader_cores0.lsq.warpInstBufActive::6       185924      2.08%     74.45% # Histogram of number of active warp inst buffers at a given time
system.gpu.shader_cores0.lsq.warpInstBufActive::7       104333      1.17%     75.62% # Histogram of number of active warp inst buffers at a given time
system.gpu.shader_cores0.lsq.warpInstBufActive::8        96493      1.08%     76.70% # Histogram of number of active warp inst buffers at a given time
system.gpu.shader_cores0.lsq.warpInstBufActive::9        79669      0.89%     77.59% # Histogram of number of active warp inst buffers at a given time
system.gpu.shader_cores0.lsq.warpInstBufActive::10       279249      3.13%     80.72% # Histogram of number of active warp inst buffers at a given time
system.gpu.shader_cores0.lsq.warpInstBufActive::11        72724      0.81%     81.53% # Histogram of number of active warp inst buffers at a given time
system.gpu.shader_cores0.lsq.warpInstBufActive::12        60754      0.68%     82.21% # Histogram of number of active warp inst buffers at a given time
system.gpu.shader_cores0.lsq.warpInstBufActive::13        38157      0.43%     82.64% # Histogram of number of active warp inst buffers at a given time
system.gpu.shader_cores0.lsq.warpInstBufActive::14        90957      1.02%     83.66% # Histogram of number of active warp inst buffers at a given time
system.gpu.shader_cores0.lsq.warpInstBufActive::15       159244      1.78%     85.44% # Histogram of number of active warp inst buffers at a given time
system.gpu.shader_cores0.lsq.warpInstBufActive::16       490940      5.50%     90.94% # Histogram of number of active warp inst buffers at a given time
system.gpu.shader_cores0.lsq.warpInstBufActive::17        53554      0.60%     91.54% # Histogram of number of active warp inst buffers at a given time
system.gpu.shader_cores0.lsq.warpInstBufActive::18        65679      0.74%     92.27% # Histogram of number of active warp inst buffers at a given time
system.gpu.shader_cores0.lsq.warpInstBufActive::19        73424      0.82%     93.10% # Histogram of number of active warp inst buffers at a given time
system.gpu.shader_cores0.lsq.warpInstBufActive::20        78116      0.87%     93.97% # Histogram of number of active warp inst buffers at a given time
system.gpu.shader_cores0.lsq.warpInstBufActive::21       181259      2.03%     96.00% # Histogram of number of active warp inst buffers at a given time
system.gpu.shader_cores0.lsq.warpInstBufActive::22        84249      0.94%     96.94% # Histogram of number of active warp inst buffers at a given time
system.gpu.shader_cores0.lsq.warpInstBufActive::23        46752      0.52%     97.47% # Histogram of number of active warp inst buffers at a given time
system.gpu.shader_cores0.lsq.warpInstBufActive::24        24969      0.28%     97.75% # Histogram of number of active warp inst buffers at a given time
system.gpu.shader_cores0.lsq.warpInstBufActive::25        24198      0.27%     98.02% # Histogram of number of active warp inst buffers at a given time
system.gpu.shader_cores0.lsq.warpInstBufActive::26        37173      0.42%     98.43% # Histogram of number of active warp inst buffers at a given time
system.gpu.shader_cores0.lsq.warpInstBufActive::27        44433      0.50%     98.93% # Histogram of number of active warp inst buffers at a given time
system.gpu.shader_cores0.lsq.warpInstBufActive::28        29036      0.33%     99.26% # Histogram of number of active warp inst buffers at a given time
system.gpu.shader_cores0.lsq.warpInstBufActive::29        42568      0.48%     99.73% # Histogram of number of active warp inst buffers at a given time
system.gpu.shader_cores0.lsq.warpInstBufActive::30        22560      0.25%     99.99% # Histogram of number of active warp inst buffers at a given time
system.gpu.shader_cores0.lsq.warpInstBufActive::31         1207      0.01%    100.00% # Histogram of number of active warp inst buffers at a given time
system.gpu.shader_cores0.lsq.warpInstBufActive::32            0      0.00%    100.00% # Histogram of number of active warp inst buffers at a given time
system.gpu.shader_cores0.lsq.warpInstBufActive::33            0      0.00%    100.00% # Histogram of number of active warp inst buffers at a given time
system.gpu.shader_cores0.lsq.warpInstBufActive::34            0      0.00%    100.00% # Histogram of number of active warp inst buffers at a given time
system.gpu.shader_cores0.lsq.warpInstBufActive::35            0      0.00%    100.00% # Histogram of number of active warp inst buffers at a given time
system.gpu.shader_cores0.lsq.warpInstBufActive::36            0      0.00%    100.00% # Histogram of number of active warp inst buffers at a given time
system.gpu.shader_cores0.lsq.warpInstBufActive::37            0      0.00%    100.00% # Histogram of number of active warp inst buffers at a given time
system.gpu.shader_cores0.lsq.warpInstBufActive::38            0      0.00%    100.00% # Histogram of number of active warp inst buffers at a given time
system.gpu.shader_cores0.lsq.warpInstBufActive::39            0      0.00%    100.00% # Histogram of number of active warp inst buffers at a given time
system.gpu.shader_cores0.lsq.warpInstBufActive::40            0      0.00%    100.00% # Histogram of number of active warp inst buffers at a given time
system.gpu.shader_cores0.lsq.warpInstBufActive::41            0      0.00%    100.00% # Histogram of number of active warp inst buffers at a given time
system.gpu.shader_cores0.lsq.warpInstBufActive::42            0      0.00%    100.00% # Histogram of number of active warp inst buffers at a given time
system.gpu.shader_cores0.lsq.warpInstBufActive::43            0      0.00%    100.00% # Histogram of number of active warp inst buffers at a given time
system.gpu.shader_cores0.lsq.warpInstBufActive::44            0      0.00%    100.00% # Histogram of number of active warp inst buffers at a given time
system.gpu.shader_cores0.lsq.warpInstBufActive::45            0      0.00%    100.00% # Histogram of number of active warp inst buffers at a given time
system.gpu.shader_cores0.lsq.warpInstBufActive::46            0      0.00%    100.00% # Histogram of number of active warp inst buffers at a given time
system.gpu.shader_cores0.lsq.warpInstBufActive::47            0      0.00%    100.00% # Histogram of number of active warp inst buffers at a given time
system.gpu.shader_cores0.lsq.warpInstBufActive::48            0      0.00%    100.00% # Histogram of number of active warp inst buffers at a given time
system.gpu.shader_cores0.lsq.warpInstBufActive::49            0      0.00%    100.00% # Histogram of number of active warp inst buffers at a given time
system.gpu.shader_cores0.lsq.warpInstBufActive::50            0      0.00%    100.00% # Histogram of number of active warp inst buffers at a given time
system.gpu.shader_cores0.lsq.warpInstBufActive::51            0      0.00%    100.00% # Histogram of number of active warp inst buffers at a given time
system.gpu.shader_cores0.lsq.warpInstBufActive::52            0      0.00%    100.00% # Histogram of number of active warp inst buffers at a given time
system.gpu.shader_cores0.lsq.warpInstBufActive::53            0      0.00%    100.00% # Histogram of number of active warp inst buffers at a given time
system.gpu.shader_cores0.lsq.warpInstBufActive::54            0      0.00%    100.00% # Histogram of number of active warp inst buffers at a given time
system.gpu.shader_cores0.lsq.warpInstBufActive::55            0      0.00%    100.00% # Histogram of number of active warp inst buffers at a given time
system.gpu.shader_cores0.lsq.warpInstBufActive::56            0      0.00%    100.00% # Histogram of number of active warp inst buffers at a given time
system.gpu.shader_cores0.lsq.warpInstBufActive::57            0      0.00%    100.00% # Histogram of number of active warp inst buffers at a given time
system.gpu.shader_cores0.lsq.warpInstBufActive::58            0      0.00%    100.00% # Histogram of number of active warp inst buffers at a given time
system.gpu.shader_cores0.lsq.warpInstBufActive::59            0      0.00%    100.00% # Histogram of number of active warp inst buffers at a given time
system.gpu.shader_cores0.lsq.warpInstBufActive::60            0      0.00%    100.00% # Histogram of number of active warp inst buffers at a given time
system.gpu.shader_cores0.lsq.warpInstBufActive::61            0      0.00%    100.00% # Histogram of number of active warp inst buffers at a given time
system.gpu.shader_cores0.lsq.warpInstBufActive::62            0      0.00%    100.00% # Histogram of number of active warp inst buffers at a given time
system.gpu.shader_cores0.lsq.warpInstBufActive::63            0      0.00%    100.00% # Histogram of number of active warp inst buffers at a given time
system.gpu.shader_cores0.lsq.warpInstBufActive::64            0      0.00%    100.00% # Histogram of number of active warp inst buffers at a given time
system.gpu.shader_cores0.lsq.warpInstBufActive::total      8930836                       # Histogram of number of active warp inst buffers at a given time
system.gpu.shader_cores0.lsq.cacheAccesses     0.002867                       # Average number of concurrent outstanding cache accesses
system.gpu.shader_cores0.lsq.writebackBlockedCycles            2                       # Number of cycles blocked for core writeback stage
system.gpu.shader_cores0.lsq.mshrHitQueued           69                       # Number of hits on blocked lines in MSHRs
system.gpu.shader_cores0.lsq.mshrsFullCycles            0                       # Number of cycles stalled waiting for an MSHR
system.gpu.shader_cores0.lsq.mshrsFullCount            0                       # Number of times MSHRs filled
system.gpu.shader_cores0.lsq.warpCoalescedAccesses::samples          416                       # Number of coalesced accesses per warp instruction
system.gpu.shader_cores0.lsq.warpCoalescedAccesses::mean     1.769231                       # Number of coalesced accesses per warp instruction
system.gpu.shader_cores0.lsq.warpCoalescedAccesses::gmean     1.601517                       # Number of coalesced accesses per warp instruction
system.gpu.shader_cores0.lsq.warpCoalescedAccesses::stdev     0.782098                       # Number of coalesced accesses per warp instruction
system.gpu.shader_cores0.lsq.warpCoalescedAccesses::0            0      0.00%      0.00% # Number of coalesced accesses per warp instruction
system.gpu.shader_cores0.lsq.warpCoalescedAccesses::1          186     44.71%     44.71% # Number of coalesced accesses per warp instruction
system.gpu.shader_cores0.lsq.warpCoalescedAccesses::2          140     33.65%     78.37% # Number of coalesced accesses per warp instruction
system.gpu.shader_cores0.lsq.warpCoalescedAccesses::3           90     21.63%    100.00% # Number of coalesced accesses per warp instruction
system.gpu.shader_cores0.lsq.warpCoalescedAccesses::4            0      0.00%    100.00% # Number of coalesced accesses per warp instruction
system.gpu.shader_cores0.lsq.warpCoalescedAccesses::5            0      0.00%    100.00% # Number of coalesced accesses per warp instruction
system.gpu.shader_cores0.lsq.warpCoalescedAccesses::6            0      0.00%    100.00% # Number of coalesced accesses per warp instruction
system.gpu.shader_cores0.lsq.warpCoalescedAccesses::7            0      0.00%    100.00% # Number of coalesced accesses per warp instruction
system.gpu.shader_cores0.lsq.warpCoalescedAccesses::8            0      0.00%    100.00% # Number of coalesced accesses per warp instruction
system.gpu.shader_cores0.lsq.warpCoalescedAccesses::9            0      0.00%    100.00% # Number of coalesced accesses per warp instruction
system.gpu.shader_cores0.lsq.warpCoalescedAccesses::10            0      0.00%    100.00% # Number of coalesced accesses per warp instruction
system.gpu.shader_cores0.lsq.warpCoalescedAccesses::11            0      0.00%    100.00% # Number of coalesced accesses per warp instruction
system.gpu.shader_cores0.lsq.warpCoalescedAccesses::12            0      0.00%    100.00% # Number of coalesced accesses per warp instruction
system.gpu.shader_cores0.lsq.warpCoalescedAccesses::13            0      0.00%    100.00% # Number of coalesced accesses per warp instruction
system.gpu.shader_cores0.lsq.warpCoalescedAccesses::14            0      0.00%    100.00% # Number of coalesced accesses per warp instruction
system.gpu.shader_cores0.lsq.warpCoalescedAccesses::15            0      0.00%    100.00% # Number of coalesced accesses per warp instruction
system.gpu.shader_cores0.lsq.warpCoalescedAccesses::16            0      0.00%    100.00% # Number of coalesced accesses per warp instruction
system.gpu.shader_cores0.lsq.warpCoalescedAccesses::17            0      0.00%    100.00% # Number of coalesced accesses per warp instruction
system.gpu.shader_cores0.lsq.warpCoalescedAccesses::18            0      0.00%    100.00% # Number of coalesced accesses per warp instruction
system.gpu.shader_cores0.lsq.warpCoalescedAccesses::19            0      0.00%    100.00% # Number of coalesced accesses per warp instruction
system.gpu.shader_cores0.lsq.warpCoalescedAccesses::20            0      0.00%    100.00% # Number of coalesced accesses per warp instruction
system.gpu.shader_cores0.lsq.warpCoalescedAccesses::21            0      0.00%    100.00% # Number of coalesced accesses per warp instruction
system.gpu.shader_cores0.lsq.warpCoalescedAccesses::22            0      0.00%    100.00% # Number of coalesced accesses per warp instruction
system.gpu.shader_cores0.lsq.warpCoalescedAccesses::23            0      0.00%    100.00% # Number of coalesced accesses per warp instruction
system.gpu.shader_cores0.lsq.warpCoalescedAccesses::24            0      0.00%    100.00% # Number of coalesced accesses per warp instruction
system.gpu.shader_cores0.lsq.warpCoalescedAccesses::25            0      0.00%    100.00% # Number of coalesced accesses per warp instruction
system.gpu.shader_cores0.lsq.warpCoalescedAccesses::26            0      0.00%    100.00% # Number of coalesced accesses per warp instruction
system.gpu.shader_cores0.lsq.warpCoalescedAccesses::27            0      0.00%    100.00% # Number of coalesced accesses per warp instruction
system.gpu.shader_cores0.lsq.warpCoalescedAccesses::28            0      0.00%    100.00% # Number of coalesced accesses per warp instruction
system.gpu.shader_cores0.lsq.warpCoalescedAccesses::29            0      0.00%    100.00% # Number of coalesced accesses per warp instruction
system.gpu.shader_cores0.lsq.warpCoalescedAccesses::30            0      0.00%    100.00% # Number of coalesced accesses per warp instruction
system.gpu.shader_cores0.lsq.warpCoalescedAccesses::31            0      0.00%    100.00% # Number of coalesced accesses per warp instruction
system.gpu.shader_cores0.lsq.warpCoalescedAccesses::32            0      0.00%    100.00% # Number of coalesced accesses per warp instruction
system.gpu.shader_cores0.lsq.warpCoalescedAccesses::total          416                       # Number of coalesced accesses per warp instruction
system.gpu.shader_cores0.lsq.warpLatencyRead::samples          288                       # Latency in cycles for whole warp to finish the read
system.gpu.shader_cores0.lsq.warpLatencyRead::mean    90.166667                       # Latency in cycles for whole warp to finish the read
system.gpu.shader_cores0.lsq.warpLatencyRead::gmean    35.932090                       # Latency in cycles for whole warp to finish the read
system.gpu.shader_cores0.lsq.warpLatencyRead::stdev   153.254406                       # Latency in cycles for whole warp to finish the read
system.gpu.shader_cores0.lsq.warpLatencyRead::0-63          210     72.92%     72.92% # Latency in cycles for whole warp to finish the read
system.gpu.shader_cores0.lsq.warpLatencyRead::64-127           27      9.38%     82.29% # Latency in cycles for whole warp to finish the read
system.gpu.shader_cores0.lsq.warpLatencyRead::128-191            8      2.78%     85.07% # Latency in cycles for whole warp to finish the read
system.gpu.shader_cores0.lsq.warpLatencyRead::192-255            6      2.08%     87.15% # Latency in cycles for whole warp to finish the read
system.gpu.shader_cores0.lsq.warpLatencyRead::256-319            9      3.12%     90.28% # Latency in cycles for whole warp to finish the read
system.gpu.shader_cores0.lsq.warpLatencyRead::320-383           10      3.47%     93.75% # Latency in cycles for whole warp to finish the read
system.gpu.shader_cores0.lsq.warpLatencyRead::384-447            5      1.74%     95.49% # Latency in cycles for whole warp to finish the read
system.gpu.shader_cores0.lsq.warpLatencyRead::448-511            3      1.04%     96.53% # Latency in cycles for whole warp to finish the read
system.gpu.shader_cores0.lsq.warpLatencyRead::512-575            3      1.04%     97.57% # Latency in cycles for whole warp to finish the read
system.gpu.shader_cores0.lsq.warpLatencyRead::576-639            1      0.35%     97.92% # Latency in cycles for whole warp to finish the read
system.gpu.shader_cores0.lsq.warpLatencyRead::640-703            2      0.69%     98.61% # Latency in cycles for whole warp to finish the read
system.gpu.shader_cores0.lsq.warpLatencyRead::704-767            2      0.69%     99.31% # Latency in cycles for whole warp to finish the read
system.gpu.shader_cores0.lsq.warpLatencyRead::768-831            0      0.00%     99.31% # Latency in cycles for whole warp to finish the read
system.gpu.shader_cores0.lsq.warpLatencyRead::832-895            2      0.69%    100.00% # Latency in cycles for whole warp to finish the read
system.gpu.shader_cores0.lsq.warpLatencyRead::896-959            0      0.00%    100.00% # Latency in cycles for whole warp to finish the read
system.gpu.shader_cores0.lsq.warpLatencyRead::960-1023            0      0.00%    100.00% # Latency in cycles for whole warp to finish the read
system.gpu.shader_cores0.lsq.warpLatencyRead::total          288                       # Latency in cycles for whole warp to finish the read
system.gpu.shader_cores0.lsq.warpLatencyWrite::samples          128                       # Latency in cycles for whole warp to finish the write
system.gpu.shader_cores0.lsq.warpLatencyWrite::mean    19.687500                       # Latency in cycles for whole warp to finish the write
system.gpu.shader_cores0.lsq.warpLatencyWrite::gmean    17.606789                       # Latency in cycles for whole warp to finish the write
system.gpu.shader_cores0.lsq.warpLatencyWrite::stdev    11.207246                       # Latency in cycles for whole warp to finish the write
system.gpu.shader_cores0.lsq.warpLatencyWrite::0-3            0      0.00%      0.00% # Latency in cycles for whole warp to finish the write
system.gpu.shader_cores0.lsq.warpLatencyWrite::4-7            0      0.00%      0.00% # Latency in cycles for whole warp to finish the write
system.gpu.shader_cores0.lsq.warpLatencyWrite::8-11           19     14.84%     14.84% # Latency in cycles for whole warp to finish the write
system.gpu.shader_cores0.lsq.warpLatencyWrite::12-15           43     33.59%     48.44% # Latency in cycles for whole warp to finish the write
system.gpu.shader_cores0.lsq.warpLatencyWrite::16-19           32     25.00%     73.44% # Latency in cycles for whole warp to finish the write
system.gpu.shader_cores0.lsq.warpLatencyWrite::20-23            3      2.34%     75.78% # Latency in cycles for whole warp to finish the write
system.gpu.shader_cores0.lsq.warpLatencyWrite::24-27           10      7.81%     83.59% # Latency in cycles for whole warp to finish the write
system.gpu.shader_cores0.lsq.warpLatencyWrite::28-31            4      3.12%     86.72% # Latency in cycles for whole warp to finish the write
system.gpu.shader_cores0.lsq.warpLatencyWrite::32-35            5      3.91%     90.62% # Latency in cycles for whole warp to finish the write
system.gpu.shader_cores0.lsq.warpLatencyWrite::36-39            2      1.56%     92.19% # Latency in cycles for whole warp to finish the write
system.gpu.shader_cores0.lsq.warpLatencyWrite::40-43            2      1.56%     93.75% # Latency in cycles for whole warp to finish the write
system.gpu.shader_cores0.lsq.warpLatencyWrite::44-47            2      1.56%     95.31% # Latency in cycles for whole warp to finish the write
system.gpu.shader_cores0.lsq.warpLatencyWrite::48-51            2      1.56%     96.88% # Latency in cycles for whole warp to finish the write
system.gpu.shader_cores0.lsq.warpLatencyWrite::52-55            1      0.78%     97.66% # Latency in cycles for whole warp to finish the write
system.gpu.shader_cores0.lsq.warpLatencyWrite::56-59            1      0.78%     98.44% # Latency in cycles for whole warp to finish the write
system.gpu.shader_cores0.lsq.warpLatencyWrite::60-63            2      1.56%    100.00% # Latency in cycles for whole warp to finish the write
system.gpu.shader_cores0.lsq.warpLatencyWrite::total          128                       # Latency in cycles for whole warp to finish the write
system.gpu.shader_cores0.lsq.tlbMissLatency::samples            0                       # Latency in cycles for TLB miss
system.gpu.shader_cores0.lsq.tlbMissLatency::mean          nan                       # Latency in cycles for TLB miss
system.gpu.shader_cores0.lsq.tlbMissLatency::gmean          nan                       # Latency in cycles for TLB miss
system.gpu.shader_cores0.lsq.tlbMissLatency::stdev          nan                       # Latency in cycles for TLB miss
system.gpu.shader_cores0.lsq.tlbMissLatency::0            0                       # Latency in cycles for TLB miss
system.gpu.shader_cores0.lsq.tlbMissLatency::1            0                       # Latency in cycles for TLB miss
[...]
system.ruby.L1Cache_Controller.MM.Store  |      844688     99.91%     99.91% |         202      0.02%     99.93% |         196      0.02%     99.95% |         204      0.02%     99.98% |         192      0.02%    100.00% |           0      0.00%    100.00% |           0      0.00%    100.00%
system.ruby.L1Cache_Controller.MM.Store::total       845482                      
system.ruby.L1Cache_Controller.MM.L2_Replacement |           0      0.00%      0.00% |           0      0.00%      0.00% |           0      0.00%      0.00% |           0      0.00%      0.00% |           0      0.00%      0.00% |           0      0.00%      0.00% |         503    100.00%    100.00%
system.ruby.L1Cache_Controller.MM.L2_Replacement::total          503                      
system.ruby.L1Cache_Controller.MM.L1_to_L2 |         701     56.31%     56.31% |           0      0.00%     56.31% |           0      0.00%     56.31% |           0      0.00%     56.31% |           0      0.00%     56.31% |           0      0.00%     56.31% |         544     43.69%    100.00%
system.ruby.L1Cache_Controller.MM.L1_to_L2::total         1245                      
system.ruby.L1Cache_Controller.MM.Trigger_L2_to_L1D |         453    100.00%    100.00% |           0      0.00%    100.00% |           0      0.00%    100.00% |           0      0.00%    100.00% |           0      0.00%    100.00% |           0      0.00%    100.00% |           0      0.00%    100.00%
system.ruby.L1Cache_Controller.MM.Trigger_L2_to_L1D::total          453                      
system.ruby.L1Cache_Controller.MM.Other_GETX |           8      4.44%      4.44% |          38     21.11%     25.56% |          45     25.00%     50.56% |          40     22.22%     72.78% |          49     27.22%    100.00% |           0      0.00%    100.00% |           0      0.00%    100.00%
system.ruby.L1Cache_Controller.MM.Other_GETX::total          180                      
system.ruby.L1Cache_Controller.MM.Other_GETS |         285     58.64%     58.64% |          39      8.02%     66.67% |          39      8.02%     74.69% |          36      7.41%     82.10% |          35      7.20%     89.30% |           0      0.00%     89.30% |          52     10.70%    100.00%
system.ruby.L1Cache_Controller.MM.Other_GETS::total          486                      
system.ruby.L1Cache_Controller.IR.Load   |          44    100.00%    100.00% |           0      0.00%    100.00% |           0      0.00%    100.00% |           0      0.00%    100.00% |           0      0.00%    100.00% |           0      0.00%    100.00% |           0      0.00%    100.00%
system.ruby.L1Cache_Controller.IR.Load::total           44                      
system.ruby.L1Cache_Controller.MR.Load   |          21    100.00%    100.00% |           0      0.00%    100.00% |           0      0.00%    100.00% |           0      0.00%    100.00% |           0      0.00%    100.00% |           0      0.00%    100.00% |           0      0.00%    100.00%
system.ruby.L1Cache_Controller.MR.Load::total           21                      
system.ruby.L1Cache_Controller.MR.Ifetch |        5070    100.00%    100.00% |           0      0.00%    100.00% |           0      0.00%    100.00% |           0      0.00%    100.00% |           0      0.00%    100.00% |           0      0.00%    100.00% |           0      0.00%    100.00%
system.ruby.L1Cache_Controller.MR.Ifetch::total         5070                      
system.ruby.L1Cache_Controller.MR.Store  |           1    100.00%    100.00% |           0      0.00%    100.00% |           0      0.00%    100.00% |           0      0.00%    100.00% |           0      0.00%    100.00% |           0      0.00%    100.00% |           0      0.00%    100.00%
system.ruby.L1Cache_Controller.MR.Store::total            1                      
system.ruby.L1Cache_Controller.MMR.Load  |         432    100.00%    100.00% |           0      0.00%    100.00% |           0      0.00%    100.00% |           0      0.00%    100.00% |           0      0.00%    100.00% |           0      0.00%    100.00% |           0      0.00%    100.00%
system.ruby.L1Cache_Controller.MMR.Load::total          432                      
system.ruby.L1Cache_Controller.MMR.Store |          21    100.00%    100.00% |           0      0.00%    100.00% |           0      0.00%    100.00% |           0      0.00%    100.00% |           0      0.00%    100.00% |           0      0.00%    100.00% |           0      0.00%    100.00%
system.ruby.L1Cache_Controller.MMR.Store::total           21                      
system.ruby.L1Cache_Controller.IM.L1_to_L2 |           0      0.00%      0.00% |           0      0.00%      0.00% |           0      0.00%      0.00% |           0      0.00%      0.00% |           0      0.00%      0.00% |           0      0.00%      0.00% |       22002    100.00%    100.00%
system.ruby.L1Cache_Controller.IM.L1_to_L2::total        22002                      
system.ruby.L1Cache_Controller.IM.Ack    |        4833     60.50%     60.50% |          12      0.15%     60.65% |          53      0.66%     61.31% |          27      0.34%     61.65% |          54      0.68%     62.32% |           0      0.00%     62.32% |        3010     37.68%    100.00%
system.ruby.L1Cache_Controller.IM.Ack::total         7989                      
system.ruby.L1Cache_Controller.IM.Data   |           1     16.67%     16.67% |           0      0.00%     16.67% |           0      0.00%     16.67% |           0      0.00%     16.67% |           0      0.00%     16.67% |           0      0.00%     16.67% |           5     83.33%    100.00%
system.ruby.L1Cache_Controller.IM.Data::total            6                      
system.ruby.L1Cache_Controller.IM.Exclusive_Data |         805     56.73%     56.73% |           4      0.28%     57.01% |          17      1.20%     58.21% |           8      0.56%     58.77% |          14      0.99%     59.76% |           0      0.00%     59.76% |         571     40.24%    100.00%
system.ruby.L1Cache_Controller.IM.Exclusive_Data::total         1419                      
system.ruby.L1Cache_Controller.SM.Ack    |           6     26.09%     26.09% |           1      4.35%     30.43% |           0      0.00%     30.43% |           1      4.35%     34.78% |          15     65.22%    100.00% |           0      0.00%    100.00% |           0      0.00%    100.00%
system.ruby.L1Cache_Controller.SM.Ack::total           23                      
system.ruby.L1Cache_Controller.SM.Data   |           2     25.00%     25.00% |           1     12.50%     37.50% |           0      0.00%     37.50% |           1     12.50%     50.00% |           4     50.00%    100.00% |           0      0.00%    100.00% |           0      0.00%    100.00%
system.ruby.L1Cache_Controller.SM.Data::total            8                      
system.ruby.L1Cache_Controller.OM.Other_GETX |           0      0.00%      0.00% |           0      0.00%      0.00% |           1    100.00%    100.00% |           0      0.00%    100.00% |           0      0.00%    100.00% |           0      0.00%    100.00% |           0      0.00%    100.00%
system.ruby.L1Cache_Controller.OM.Other_GETX::total            1                      
system.ruby.L1Cache_Controller.OM.Ack    |           0      0.00%      0.00% |          36     22.22%     22.22% |          36     22.22%     44.44% |          30     18.52%     62.96% |          60     37.04%    100.00% |           0      0.00%    100.00% |           0      0.00%    100.00%
system.ruby.L1Cache_Controller.OM.Ack::total          162                      
system.ruby.L1Cache_Controller.OM.All_acks_no_sharers |           0      0.00%      0.00% |           6     22.22%     22.22% |           6     22.22%     44.44% |           5     18.52%     62.96% |          10     37.04%    100.00% |           0      0.00%    100.00% |           0      0.00%    100.00%
system.ruby.L1Cache_Controller.OM.All_acks_no_sharers::total           27                      
system.ruby.L1Cache_Controller.ISM.Ack   |           5     16.67%     16.67% |           4     13.33%     30.00% |           0      0.00%     30.00% |           4     13.33%     43.33% |           5     16.67%     60.00% |           0      0.00%     60.00% |          12     40.00%    100.00%
system.ruby.L1Cache_Controller.ISM.Ack::total           30                      
system.ruby.L1Cache_Controller.ISM.All_acks_no_sharers |           3     21.43%     21.43% |           1      7.14%     28.57% |           0      0.00%     28.57% |           1      7.14%     35.71% |           4     28.57%     64.29% |           0      0.00%     64.29% |           5     35.71%    100.00%
system.ruby.L1Cache_Controller.ISM.All_acks_no_sharers::total           14                      
system.ruby.L1Cache_Controller.M_W.L1_to_L2 |           0      0.00%      0.00% |           0      0.00%      0.00% |           0      0.00%      0.00% |           0      0.00%      0.00% |           0      0.00%      0.00% |           0      0.00%      0.00% |         433    100.00%    100.00%
system.ruby.L1Cache_Controller.M_W.L1_to_L2::total          433                      
system.ruby.L1Cache_Controller.M_W.Ack   |          20      3.26%      3.26% |          36      5.87%      9.14% |          13      2.12%     11.26% |           2      0.33%     11.58% |          14      2.28%     13.87% |           0      0.00%     13.87% |         528     86.13%    100.00%
system.ruby.L1Cache_Controller.M_W.Ack::total          613                      
system.ruby.L1Cache_Controller.M_W.All_acks_no_sharers |         663     39.94%     39.94% |         112      6.75%     46.69% |         111      6.69%     53.37% |         106      6.39%     59.76% |         106      6.39%     66.14% |           0      0.00%     66.14% |         562     33.86%    100.00%
system.ruby.L1Cache_Controller.M_W.All_acks_no_sharers::total         1660                      
system.ruby.L1Cache_Controller.MM_W.Store |           0      0.00%      0.00% |           2     25.00%     25.00% |           2     25.00%     50.00% |           0      0.00%     50.00% |           4     50.00%    100.00% |           0      0.00%    100.00% |           0      0.00%    100.00%
system.ruby.L1Cache_Controller.MM_W.Store::total            8                      
system.ruby.L1Cache_Controller.MM_W.L1_to_L2 |           0      0.00%      0.00% |           0      0.00%      0.00% |           0      0.00%      0.00% |           0      0.00%      0.00% |           0      0.00%      0.00% |           0      0.00%      0.00% |         236    100.00%    100.00%
system.ruby.L1Cache_Controller.MM_W.L1_to_L2::total          236                      
system.ruby.L1Cache_Controller.MM_W.Ack  |           0      0.00%      0.00% |           9      2.59%      2.59% |          33      9.51%     12.10% |          15      4.32%     16.43% |          18      5.19%     21.61% |           0      0.00%     21.61% |         272     78.39%    100.00%
system.ruby.L1Cache_Controller.MM_W.Ack::total          347                      
system.ruby.L1Cache_Controller.MM_W.All_acks_no_sharers |         805     56.73%     56.73% |           4      0.28%     57.01% |          17      1.20%     58.21% |           8      0.56%     58.77% |          14      0.99%     59.76% |           0      0.00%     59.76% |         571     40.24%    100.00%
system.ruby.L1Cache_Controller.MM_W.All_acks_no_sharers::total         1419                      
system.ruby.L1Cache_Controller.IS.L1_to_L2 |           0      0.00%      0.00% |           0      0.00%      0.00% |           0      0.00%      0.00% |           0      0.00%      0.00% |           0      0.00%      0.00% |           0      0.00%      0.00% |       19120    100.00%    100.00%
system.ruby.L1Cache_Controller.IS.L1_to_L2::total        19120                      
system.ruby.L1Cache_Controller.IS.Other_GETS |           0      0.00%      0.00% |           7     31.82%     31.82% |           3     13.64%     45.45% |           4     18.18%     63.64% |           8     36.36%    100.00% |           0      0.00%    100.00% |           0      0.00%    100.00%
system.ruby.L1Cache_Controller.IS.Other_GETS::total           22                      
system.ruby.L1Cache_Controller.IS.Ack    |        3949     43.40%     43.40% |         633      6.96%     50.36% |         705      7.75%     58.11% |         689      7.57%     65.68% |         677      7.44%     73.12% |           0      0.00%     73.12% |        2446     26.88%    100.00%
system.ruby.L1Cache_Controller.IS.Ack::total         9099                      
system.ruby.L1Cache_Controller.IS.Shared_Ack |           0      0.00%      0.00% |           1      6.25%      6.25% |           8     50.00%     56.25% |           3     18.75%     75.00% |           0      0.00%     75.00% |           0      0.00%     75.00% |           4     25.00%    100.00%
system.ruby.L1Cache_Controller.IS.Shared_Ack::total           16                      
system.ruby.L1Cache_Controller.IS.Shared_Data |           2      1.98%      1.98% |          13     12.87%     14.85% |          25     24.75%     39.60% |          19     18.81%     58.42% |          27     26.73%     85.15% |           0      0.00%     85.15% |          15     14.85%    100.00%
system.ruby.L1Cache_Controller.IS.Shared_Data::total          101                      
system.ruby.L1Cache_Controller.IS.Exclusive_Data |         663     39.94%     39.94% |         112      6.75%     46.69% |         111      6.69%     53.37% |         106      6.39%     59.76% |         106      6.39%     66.14% |           0      0.00%     66.14% |         562     33.86%    100.00%
system.ruby.L1Cache_Controller.IS.Exclusive_Data::total         1660                      
system.ruby.L1Cache_Controller.SS.Load   |           0      0.00%      0.00% |           0      0.00%      0.00% |           0      0.00%      0.00% |           2     40.00%     40.00% |           3     60.00%    100.00% |           0      0.00%    100.00% |           0      0.00%    100.00%
system.ruby.L1Cache_Controller.SS.Load::total            5                      
system.ruby.L1Cache_Controller.SS.L1_to_L2 |           0      0.00%      0.00% |           0      0.00%      0.00% |           0      0.00%      0.00% |           0      0.00%      0.00% |           0      0.00%      0.00% |           0      0.00%      0.00% |           3    100.00%    100.00%
system.ruby.L1Cache_Controller.SS.L1_to_L2::total            3                      
system.ruby.L1Cache_Controller.SS.Ack    |           5      3.47%      3.47% |           8      5.56%      9.03% |          38     26.39%     35.42% |          24     16.67%     52.08% |          38     26.39%     78.47% |           0      0.00%     78.47% |          31     21.53%    100.00%
system.ruby.L1Cache_Controller.SS.Ack::total          144                      
system.ruby.L1Cache_Controller.SS.Shared_Ack |           3     17.65%     17.65% |           0      0.00%     17.65% |           3     17.65%     35.29% |           1      5.88%     41.18% |           2     11.76%     52.94% |           0      0.00%     52.94% |           8     47.06%    100.00%
system.ruby.L1Cache_Controller.SS.Shared_Ack::total           17                      
system.ruby.L1Cache_Controller.SS.All_acks |           2      1.98%      1.98% |          13     12.87%     14.85% |          25     24.75%     39.60% |          19     18.81%     58.42% |          27     26.73%     85.15% |           0      0.00%     85.15% |          15     14.85%    100.00%
system.ruby.L1Cache_Controller.SS.All_acks::total          101                      
system.ruby.L1Cache_Controller.MI.Writeback_Ack |           0      0.00%      0.00% |           0      0.00%      0.00% |           0      0.00%      0.00% |           0      0.00%      0.00% |           0      0.00%      0.00% |           0      0.00%      0.00% |        1065    100.00%    100.00%
system.ruby.L1Cache_Controller.MI.Writeback_Ack::total         1065                      
system.ruby.L1Cache_Controller.IT.Complete_L2_to_L1 |          44    100.00%    100.00% |           0      0.00%    100.00% |           0      0.00%    100.00% |           0      0.00%    100.00% |           0      0.00%    100.00% |           0      0.00%    100.00% |           0      0.00%    100.00%
system.ruby.L1Cache_Controller.IT.Complete_L2_to_L1::total           44                      
system.ruby.L1Cache_Controller.MT.Complete_L2_to_L1 |        5092    100.00%    100.00% |           0      0.00%    100.00% |           0      0.00%    100.00% |           0      0.00%    100.00% |           0      0.00%    100.00% |           0      0.00%    100.00% |           0      0.00%    100.00%
system.ruby.L1Cache_Controller.MT.Complete_L2_to_L1::total         5092                      
system.ruby.L1Cache_Controller.MMT.Complete_L2_to_L1 |         453    100.00%    100.00% |           0      0.00%    100.00% |           0      0.00%    100.00% |           0      0.00%    100.00% |           0      0.00%    100.00% |           0      0.00%    100.00% |           0      0.00%    100.00%
system.ruby.L1Cache_Controller.MMT.Complete_L2_to_L1::total          453                      
system.ruby.Directory_Controller.GETX            1462      0.00%      0.00%
system.ruby.Directory_Controller.GETS            1799      0.00%      0.00%
system.ruby.Directory_Controller.PUT             1071      0.00%      0.00%
system.ruby.Directory_Controller.UnblockS          101      0.00%      0.00%
system.ruby.Directory_Controller.UnblockM         3120      0.00%      0.00%
system.ruby.Directory_Controller.Writeback_Exclusive_Clean          132      0.00%      0.00%
system.ruby.Directory_Controller.Writeback_Exclusive_Dirty          933      0.00%      0.00%
system.ruby.Directory_Controller.Memory_Data         2398      0.00%      0.00%
system.ruby.Directory_Controller.Memory_Ack          933      0.00%      0.00%
system.ruby.Directory_Controller.All_Unblocks           10      0.00%      0.00%
system.ruby.Directory_Controller.NX.GETX           41      0.00%      0.00%
system.ruby.Directory_Controller.NX.GETS           23      0.00%      0.00%
system.ruby.Directory_Controller.NO.GETX          195      0.00%      0.00%
system.ruby.Directory_Controller.NO.GETS          546      0.00%      0.00%
system.ruby.Directory_Controller.NO.PUT          1065      0.00%      0.00%
system.ruby.Directory_Controller.E.GETX          1224      0.00%      0.00%
system.ruby.Directory_Controller.E.GETS          1174      0.00%      0.00%
system.ruby.Directory_Controller.NO_B.GETX            2      0.00%      0.00%
system.ruby.Directory_Controller.NO_B.GETS           10      0.00%      0.00%
system.ruby.Directory_Controller.NO_B.PUT            6      0.00%      0.00%
system.ruby.Directory_Controller.NO_B.UnblockS           73      0.00%      0.00%
system.ruby.Directory_Controller.NO_B.UnblockM         3118      0.00%      0.00%
system.ruby.Directory_Controller.NO_B_X.UnblockM            2      0.00%      0.00%
system.ruby.Directory_Controller.NO_B_S.GETS            8      0.00%      0.00%
system.ruby.Directory_Controller.NO_B_S.UnblockS           10      0.00%      0.00%
system.ruby.Directory_Controller.NO_B_S_W.GETS            1      0.00%      0.00%
system.ruby.Directory_Controller.NO_B_S_W.UnblockS           18      0.00%      0.00%
system.ruby.Directory_Controller.NO_B_S_W.All_Unblocks           10      0.00%      0.00%
system.ruby.Directory_Controller.NO_B_W.GETS           37      0.00%      0.00%
system.ruby.Directory_Controller.NO_B_W.Memory_Data         2398      0.00%      0.00%
system.ruby.Directory_Controller.WB.Writeback_Exclusive_Clean          132      0.00%      0.00%
system.ruby.Directory_Controller.WB.Writeback_Exclusive_Dirty          933      0.00%      0.00%
system.ruby.Directory_Controller.WB_E_W.Memory_Ack          933      0.00%      0.00%

---------- End Simulation Statistics   ----------
