
---------- Begin Simulation Statistics ----------
sim_seconds                                  0.013296                       # Number of seconds simulated
sim_ticks                                 13295521000                       # Number of ticks simulated
final_tick                                13295521000                       # Number of ticks from beginning of simulation (restored from checkpoints and never reset)
sim_freq                                 1000000000000                       # Frequency of simulated ticks
host_inst_rate                                 324637                       # Simulator instruction rate (inst/s)
host_op_rate                                   620195                       # Simulator op (including micro ops) rate (op/s)
host_tick_rate                              870144393                       # Simulator tick rate (ticks/s)
host_mem_usage                                2427060                       # Number of bytes of host memory used
host_seconds                                    15.28                       # Real time elapsed on the host
sim_insts                                     4960342                       # Number of instructions simulated
sim_ops                                       9476372                       # Number of ops (including micro ops) simulated
system.voltage_domain.voltage                       1                       # Voltage in Volts
system.clk_domain.clock                          1000                       # Clock period in ticks
system.mem_ctrls.bytes_read::gpu.shader_cores0.data        35072                       # Number of bytes read from this memory
system.mem_ctrls.bytes_read::gpu.shader_cores0.inst          288                       # Number of bytes read from this memory
system.mem_ctrls.bytes_read::gpu.shader_cores1.data        35456                       # Number of bytes read from this memory
system.mem_ctrls.bytes_read::gpu.shader_cores1.inst          312                       # Number of bytes read from this memory
system.mem_ctrls.bytes_read::gpu.shader_cores2.data        35072                       # Number of bytes read from this memory
system.mem_ctrls.bytes_read::gpu.shader_cores2.inst          288                       # Number of bytes read from this memory
system.mem_ctrls.bytes_read::gpu.shader_cores3.data        34816                       # Number of bytes read from this memory
system.mem_ctrls.bytes_read::gpu.shader_cores3.inst          288                       # Number of bytes read from this memory
system.mem_ctrls.bytes_read::gpu.ce             73052                       # Number of bytes read from this memory
system.mem_ctrls.bytes_read::cpu.inst        53320888                       # Number of bytes read from this memory
system.mem_ctrls.bytes_read::cpu.data         7972111                       # Number of bytes read from this memory
system.mem_ctrls.bytes_read::total           61507643                       # Number of bytes read from this memory
system.mem_ctrls.bytes_inst_read::gpu.shader_cores0.inst          288                       # Number of instructions bytes read from this memory
system.mem_ctrls.bytes_inst_read::gpu.shader_cores1.inst          312                       # Number of instructions bytes read from this memory
system.mem_ctrls.bytes_inst_read::gpu.shader_cores2.inst          288                       # Number of instructions bytes read from this memory
system.mem_ctrls.bytes_inst_read::gpu.shader_cores3.inst          288                       # Number of instructions bytes read from this memory
system.mem_ctrls.bytes_inst_read::cpu.inst     53320888                       # Number of instructions bytes read from this memory
system.mem_ctrls.bytes_inst_read::total      53322064                       # Number of instructions bytes read from this memory
system.mem_ctrls.bytes_written::gpu.shader_cores0.data        12544                       # Number of bytes written to this memory
system.mem_ctrls.bytes_written::gpu.shader_cores1.data        12672                       # Number of bytes written to this memory
system.mem_ctrls.bytes_written::gpu.shader_cores2.data        12544                       # Number of bytes written to this memory
system.mem_ctrls.bytes_written::gpu.shader_cores3.data        12544                       # Number of bytes written to this memory
system.mem_ctrls.bytes_written::gpu.ce          73052                       # Number of bytes written to this memory
system.mem_ctrls.bytes_written::cpu.data      4969927                       # Number of bytes written to this memory
system.mem_ctrls.bytes_written::total         5093283                       # Number of bytes written to this memory
system.mem_ctrls.num_reads::gpu.shader_cores0.data          428                       # Number of read requests responded to by this memory
system.mem_ctrls.num_reads::gpu.shader_cores0.inst           12                       # Number of read requests responded to by this memory
system.mem_ctrls.num_reads::gpu.shader_cores1.data          421                       # Number of read requests responded to by this memory
system.mem_ctrls.num_reads::gpu.shader_cores1.inst           13                       # Number of read requests responded to by this memory
system.mem_ctrls.num_reads::gpu.shader_cores2.data          428                       # Number of read requests responded to by this memory
system.mem_ctrls.num_reads::gpu.shader_cores2.inst           12                       # Number of read requests responded to by this memory
system.mem_ctrls.num_reads::gpu.shader_cores3.data          416                       # Number of read requests responded to by this memory
system.mem_ctrls.num_reads::gpu.shader_cores3.inst           12                       # Number of read requests responded to by this memory
system.mem_ctrls.num_reads::gpu.ce                577                       # Number of read requests responded to by this memory
system.mem_ctrls.num_reads::cpu.inst          6665111                       # Number of read requests responded to by this memory
system.mem_ctrls.num_reads::cpu.data          1297860                       # Number of read requests responded to by this memory
system.mem_ctrls.num_reads::total             7965290                       # Number of read requests responded to by this memory
system.mem_ctrls.num_writes::gpu.shader_cores0.data          308                       # Number of write requests responded to by this memory
system.mem_ctrls.num_writes::gpu.shader_cores1.data          322                       # Number of write requests responded to by this memory
system.mem_ctrls.num_writes::gpu.shader_cores2.data          308                       # Number of write requests responded to by this memory
system.mem_ctrls.num_writes::gpu.shader_cores3.data          320                       # Number of write requests responded to by this memory
system.mem_ctrls.num_writes::gpu.ce               576                       # Number of write requests responded to by this memory
system.mem_ctrls.num_writes::cpu.data          788149                       # Number of write requests responded to by this memory
system.mem_ctrls.num_writes::total             789983                       # Number of write requests responded to by this memory
system.mem_ctrls.bw_read::gpu.shader_cores0.data      2637881                       # Total read bandwidth from this memory (bytes/s)
system.mem_ctrls.bw_read::gpu.shader_cores0.inst        21661                       # Total read bandwidth from this memory (bytes/s)
system.mem_ctrls.bw_read::gpu.shader_cores1.data      2666763                       # Total read bandwidth from this memory (bytes/s)
system.mem_ctrls.bw_read::gpu.shader_cores1.inst        23467                       # Total read bandwidth from this memory (bytes/s)
system.mem_ctrls.bw_read::gpu.shader_cores2.data      2637881                       # Total read bandwidth from this memory (bytes/s)
system.mem_ctrls.bw_read::gpu.shader_cores2.inst        21661                       # Total read bandwidth from this memory (bytes/s)
system.mem_ctrls.bw_read::gpu.shader_cores3.data      2618626                       # Total read bandwidth from this memory (bytes/s)
system.mem_ctrls.bw_read::gpu.shader_cores3.inst        21661                       # Total read bandwidth from this memory (bytes/s)
system.mem_ctrls.bw_read::gpu.ce              5494482                       # Total read bandwidth from this memory (bytes/s)
system.mem_ctrls.bw_read::cpu.inst         4010439907                       # Total read bandwidth from this memory (bytes/s)
system.mem_ctrls.bw_read::cpu.data          599608771                       # Total read bandwidth from this memory (bytes/s)
system.mem_ctrls.bw_read::total            4626192761                       # Total read bandwidth from this memory (bytes/s)
system.mem_ctrls.bw_inst_read::gpu.shader_cores0.inst        21661                       # Instruction read bandwidth from this memory (bytes/s)
system.mem_ctrls.bw_inst_read::gpu.shader_cores1.inst        23467                       # Instruction read bandwidth from this memory (bytes/s)
system.mem_ctrls.bw_inst_read::gpu.shader_cores2.inst        21661                       # Instruction read bandwidth from this memory (bytes/s)
system.mem_ctrls.bw_inst_read::gpu.shader_cores3.inst        21661                       # Instruction read bandwidth from this memory (bytes/s)
system.mem_ctrls.bw_inst_read::cpu.inst    4010439907                       # Instruction read bandwidth from this memory (bytes/s)
system.mem_ctrls.bw_inst_read::total       4010528358                       # Instruction read bandwidth from this memory (bytes/s)
system.mem_ctrls.bw_write::gpu.shader_cores0.data       943476                       # Write bandwidth from this memory (bytes/s)
system.mem_ctrls.bw_write::gpu.shader_cores1.data       953103                       # Write bandwidth from this memory (bytes/s)
system.mem_ctrls.bw_write::gpu.shader_cores2.data       943476                       # Write bandwidth from this memory (bytes/s)
system.mem_ctrls.bw_write::gpu.shader_cores3.data       943476                       # Write bandwidth from this memory (bytes/s)
system.mem_ctrls.bw_write::gpu.ce             5494482                       # Write bandwidth from this memory (bytes/s)
system.mem_ctrls.bw_write::cpu.data         373804607                       # Write bandwidth from this memory (bytes/s)
system.mem_ctrls.bw_write::total            383082619                       # Write bandwidth from this memory (bytes/s)
system.mem_ctrls.bw_total::gpu.shader_cores0.data      3581356                       # Total bandwidth to/from this memory (bytes/s)
system.mem_ctrls.bw_total::gpu.shader_cores0.inst        21661                       # Total bandwidth to/from this memory (bytes/s)
system.mem_ctrls.bw_total::gpu.shader_cores1.data      3619866                       # Total bandwidth to/from this memory (bytes/s)
system.mem_ctrls.bw_total::gpu.shader_cores1.inst        23467                       # Total bandwidth to/from this memory (bytes/s)
system.mem_ctrls.bw_total::gpu.shader_cores2.data      3581356                       # Total bandwidth to/from this memory (bytes/s)
system.mem_ctrls.bw_total::gpu.shader_cores2.inst        21661                       # Total bandwidth to/from this memory (bytes/s)
system.mem_ctrls.bw_total::gpu.shader_cores3.data      3562102                       # Total bandwidth to/from this memory (bytes/s)
system.mem_ctrls.bw_total::gpu.shader_cores3.inst        21661                       # Total bandwidth to/from this memory (bytes/s)
system.mem_ctrls.bw_total::gpu.ce            10988964                       # Total bandwidth to/from this memory (bytes/s)
system.mem_ctrls.bw_total::cpu.inst        4010439907                       # Total bandwidth to/from this memory (bytes/s)
system.mem_ctrls.bw_total::cpu.data         973413377                       # Total bandwidth to/from this memory (bytes/s)
system.mem_ctrls.bw_total::total           5009275379                       # Total bandwidth to/from this memory (bytes/s)
system.ruby_clk_domain.clock                      500                       # Clock period in ticks
system.ruby.outstanding_req_hist::bucket_size            8                      
system.ruby.outstanding_req_hist::max_bucket           79                      
system.ruby.outstanding_req_hist::samples      8755274                      
system.ruby.outstanding_req_hist::mean       1.008966                      
system.ruby.outstanding_req_hist::gmean      1.000871                      
system.ruby.outstanding_req_hist::stdev      0.673301                      
system.ruby.outstanding_req_hist         |     8753398     99.98%     99.98% |         266      0.00%     99.98% |         242      0.00%     99.98% |         232      0.00%     99.99% |         220      0.00%     99.99% |          41      0.00%     99.99% |          50      0.00%     99.99% |          74      0.00%     99.99% |         751      0.01%    100.00% |           0      0.00%    100.00%
system.ruby.outstanding_req_hist::total       8755274                      
system.ruby.latency_hist::bucket_size             256                      
system.ruby.latency_hist::max_bucket             2559                      
system.ruby.latency_hist::samples             8755273                      
system.ruby.latency_hist::mean               2.204753                      
system.ruby.latency_hist::gmean              2.005702                      
system.ruby.latency_hist::stdev             15.427972                      
system.ruby.latency_hist                 |     8754032     99.99%     99.99% |         172      0.00%     99.99% |         143      0.00%     99.99% |         143      0.00%     99.99% |         220      0.00%     99.99% |         227      0.00%    100.00% |         190      0.00%    100.00% |         106      0.00%    100.00% |          34      0.00%    100.00% |           6      0.00%    100.00%
system.ruby.latency_hist::total               8755273                      
system.ruby.hit_latency_hist::bucket_size            2                      
system.ruby.hit_latency_hist::max_bucket           19                      
system.ruby.hit_latency_hist::samples         8752008                      
system.ruby.hit_latency_hist::mean           2.006699                      
system.ruby.hit_latency_hist::gmean          2.001999                      
system.ruby.hit_latency_hist::stdev          0.277285                      
system.ruby.hit_latency_hist             |        2361      0.03%      0.03% |     8744102     99.91%     99.94% |           0      0.00%     99.94% |           0      0.00%     99.94% |           0      0.00%     99.94% |           0      0.00%     99.94% |        5545      0.06%    100.00% |           0      0.00%    100.00% |           0      0.00%    100.00% |           0      0.00%    100.00%
system.ruby.hit_latency_hist::total           8752008                      
system.ruby.miss_latency_hist::bucket_size          256                      
system.ruby.miss_latency_hist::max_bucket         2559                      
system.ruby.miss_latency_hist::samples           3265                      
system.ruby.miss_latency_hist::mean        533.098009                      
system.ruby.miss_latency_hist::gmean       284.125035                      
system.ruby.miss_latency_hist::stdev       596.841506                      
system.ruby.miss_latency_hist            |        2024     61.99%     61.99% |         172      5.27%     67.26% |         143      4.38%     71.64% |         143      4.38%     76.02% |         220      6.74%     82.76% |         227      6.95%     89.71% |         190      5.82%     95.53% |         106      3.25%     98.77% |          34      1.04%     99.82% |           6      0.18%    100.00%
system.ruby.miss_latency_hist::total             3265                      
system.ruby.L1Cache.incomplete_times               33                      
system.ruby.l1_cntrl_ce.L1Dcache.demand_hits            0                       # Number of cache demand hits
system.ruby.l1_cntrl_ce.L1Dcache.demand_misses         1153                       # Number of cache demand misses
system.ruby.l1_cntrl_ce.L1Dcache.demand_accesses         1153                       # Number of cache demand accesses
system.ruby.l1_cntrl_ce.L1Icache.demand_hits            0                       # Number of cache demand hits
system.ruby.l1_cntrl_ce.L1Icache.demand_misses            0                       # Number of cache demand misses
system.ruby.l1_cntrl_ce.L1Icache.demand_accesses            0                       # Number of cache demand accesses
system.ruby.l1_cntrl_ce.L2cache.demand_hits            0                       # Number of cache demand hits
system.ruby.l1_cntrl_ce.L2cache.demand_misses         1153                       # Number of cache demand misses
system.ruby.l1_cntrl_ce.L2cache.demand_accesses         1153                       # Number of cache demand accesses
system.ruby.l1_cntrl_ce.fully_busy_cycles          651                       # cycles for which number of transistions == max transitions
system.ruby.l1_cntrl0.L1Dcache.demand_hits      2084521                       # Number of cache demand hits
system.ruby.l1_cntrl0.L1Dcache.demand_misses         1488                       # Number of cache demand misses
system.ruby.l1_cntrl0.L1Dcache.demand_accesses      2086009                       # Number of cache demand accesses
system.ruby.l1_cntrl0.L1Icache.demand_hits      6659581                       # Number of cache demand hits
system.ruby.l1_cntrl0.L1Icache.demand_misses         5530                       # Number of cache demand misses
system.ruby.l1_cntrl0.L1Icache.demand_accesses      6665111                       # Number of cache demand accesses
system.ruby.l1_cntrl0.L2cache.demand_hits         5545                       # Number of cache demand hits
system.ruby.l1_cntrl0.L2cache.demand_misses         1473                       # Number of cache demand misses
system.ruby.l1_cntrl0.L2cache.demand_accesses         7018                       # Number of cache demand accesses
system.ruby.network.routers0.percent_links_utilized     0.042744                      
system.ruby.network.routers0.msg_count.Request_Control::2         1473                      
system.ruby.network.routers0.msg_count.Request_Control::3            1                      
system.ruby.network.routers0.msg_count.Response_Data::4         1794                      
system.ruby.network.routers0.msg_count.Response_Control::4        10260                      
system.ruby.network.routers0.msg_count.Broadcast_Control::3         1759                      
system.ruby.network.routers0.msg_count.Unblock_Control::5         1473                      
system.ruby.network.routers0.msg_bytes.Request_Control::2        11784                      
system.ruby.network.routers0.msg_bytes.Request_Control::3            8                      
system.ruby.network.routers0.msg_bytes.Response_Data::4       243984                      
system.ruby.network.routers0.msg_bytes.Response_Control::4        82080                      
system.ruby.network.routers0.msg_bytes.Broadcast_Control::3        14072                      
system.ruby.network.routers0.msg_bytes.Unblock_Control::5        11784                      
system.ruby.dir_cntrl0.memBuffer.clk_domain.clock         2500                       # Clock period in ticks
system.ruby.dir_cntrl0.memBuffer.memReq          3330                       # Total number of memory requests
system.ruby.dir_cntrl0.memBuffer.memRead         2397                       # Number of memory reads
system.ruby.dir_cntrl0.memBuffer.memWrite          933                       # Number of memory writes
system.ruby.dir_cntrl0.memBuffer.memRefresh        12177                       # Number of memory refreshes
system.ruby.dir_cntrl0.memBuffer.memWaitCycles        28962                       # Delay stalled at the head of the bank queue
system.ruby.dir_cntrl0.memBuffer.memInputQ         7471                       # Delay in the input queue
system.ruby.dir_cntrl0.memBuffer.memBankQ        26894                       # Delay behind the head of the bank queue
system.ruby.dir_cntrl0.memBuffer.totalStalls        63327                       # Total number of stall cycles
system.ruby.dir_cntrl0.memBuffer.stallsPerReq    19.017117                       # Expected number of stall cycles per request
system.ruby.dir_cntrl0.memBuffer.memBankBusy         5261                       # memory stalls due to busy bank
system.ruby.dir_cntrl0.memBuffer.memBusBusy         8686                       # memory stalls due to busy bus
system.ruby.dir_cntrl0.memBuffer.memReadWriteBusy         1253                       # memory stalls due to read write turnaround
system.ruby.dir_cntrl0.memBuffer.memDataBusBusy         1754                       # memory stalls due to read read turnaround
system.ruby.dir_cntrl0.memBuffer.memArbWait         6093                       # memory stalls due to arbitration
system.ruby.dir_cntrl0.memBuffer.memNotOld         5915                       # memory stalls due to anti starvation
system.ruby.dir_cntrl0.memBuffer.memBankCount |          99      2.97%      2.97% |         100      3.00%      5.98% |          98      2.94%      8.92% |         104      3.12%     12.04% |          95      2.85%     14.89% |         105      3.15%     18.05% |         101      3.03%     21.08% |         104      3.12%     24.20% |         104      3.12%     27.33% |         103      3.09%     30.42% |         109      3.27%     33.69% |         101      3.03%     36.73% |          99      2.97%     39.70% |          97      2.91%     42.61% |         101      3.03%     45.65% |         100      3.00%     48.65% |         106      3.18%     51.83% |         108      3.24%     55.08% |         105      3.15%     58.23% |         110      3.30%     61.53% |         102      3.06%     64.59% |         104      3.12%     67.72% |         111      3.33%     71.05% |         115      3.45%     74.50% |         121      3.63%     78.14% |         114      3.42%     81.56% |         109      3.27%     84.83% |         106      3.18%     88.02% |          98      2.94%     90.96% |          98      2.94%     93.90% |         104      3.12%     97.03% |          99      2.97%    100.00% # Number of accesses per bank
system.ruby.dir_cntrl0.memBuffer.memBankCount::total         3330                       # Number of accesses per bank
system.ruby.dir_cntrl0.probeFilter.demand_hits            0                       # Number of cache demand hits
system.ruby.dir_cntrl0.probeFilter.demand_misses            0                       # Number of cache demand misses
system.ruby.dir_cntrl0.probeFilter.demand_accesses            0                       # Number of cache demand accesses
system.ruby.network.routers1.percent_links_utilized     0.064550                      
system.ruby.network.routers1.msg_count.Request_Control::2         3265                      
system.ruby.network.routers1.msg_count.Request_Control::3           24                      
system.ruby.network.routers1.msg_count.Response_Data::4         2397                      
system.ruby.network.routers1.msg_count.Writeback_Data::5          933                      
system.ruby.network.routers1.msg_count.Writeback_Control::2         1065                      
system.ruby.network.routers1.msg_count.Writeback_Control::3         1065                      
system.ruby.network.routers1.msg_count.Writeback_Control::5          132                      
system.ruby.network.routers1.msg_count.Broadcast_Control::3         3232                      
system.ruby.network.routers1.msg_count.Unblock_Control::5         3265                      
system.ruby.network.routers1.msg_bytes.Request_Control::2        26120                      
system.ruby.network.routers1.msg_bytes.Request_Control::3          192                      
system.ruby.network.routers1.msg_bytes.Response_Data::4       325992                      
system.ruby.network.routers1.msg_bytes.Writeback_Data::5       126888                      
system.ruby.network.routers1.msg_bytes.Writeback_Control::2         8520                      
system.ruby.network.routers1.msg_bytes.Writeback_Control::3         8520                      
system.ruby.network.routers1.msg_bytes.Writeback_Control::5         1056                      
system.ruby.network.routers1.msg_bytes.Broadcast_Control::3        25856                      
system.ruby.network.routers1.msg_bytes.Unblock_Control::5        26120                      
system.ruby.l1_cntrl_sp00.L1Dcache.demand_hits          594                       # Number of cache demand hits
system.ruby.l1_cntrl_sp00.L1Dcache.demand_misses          142                       # Number of cache demand misses
system.ruby.l1_cntrl_sp00.L1Dcache.demand_accesses          736                       # Number of cache demand accesses
system.ruby.l1_cntrl_sp00.L1Icache.demand_hits            0                       # Number of cache demand hits
system.ruby.l1_cntrl_sp00.L1Icache.demand_misses           12                       # Number of cache demand misses
system.ruby.l1_cntrl_sp00.L1Icache.demand_accesses           12                       # Number of cache demand accesses
system.ruby.l1_cntrl_sp00.L2cache.demand_hits            0                       # Number of cache demand hits
system.ruby.l1_cntrl_sp00.L2cache.demand_misses          154                       # Number of cache demand misses
system.ruby.l1_cntrl_sp00.L2cache.demand_accesses          154                       # Number of cache demand accesses
system.ruby.network.routers2.percent_links_utilized     0.011031                      
system.ruby.network.routers2.msg_count.Request_Control::2          154                      
system.ruby.network.routers2.msg_count.Request_Control::3           10                      
system.ruby.network.routers2.msg_count.Response_Data::4          265                      
system.ruby.network.routers2.msg_count.Response_Control::4         3827                      
system.ruby.network.routers2.msg_count.Broadcast_Control::3         3083                      
system.ruby.network.routers2.msg_count.Unblock_Control::5          154                      
system.ruby.network.routers2.msg_bytes.Request_Control::2         1232                      
system.ruby.network.routers2.msg_bytes.Request_Control::3           80                      
system.ruby.network.routers2.msg_bytes.Response_Data::4        36040                      
system.ruby.network.routers2.msg_bytes.Response_Control::4        30616                      
system.ruby.network.routers2.msg_bytes.Broadcast_Control::3        24664                      
system.ruby.network.routers2.msg_bytes.Unblock_Control::5         1232                      
system.ruby.l1_cntrl_sp01.L1Dcache.demand_hits          593                       # Number of cache demand hits
system.ruby.l1_cntrl_sp01.L1Dcache.demand_misses          150                       # Number of cache demand misses
system.ruby.l1_cntrl_sp01.L1Dcache.demand_accesses          743                       # Number of cache demand accesses
system.ruby.l1_cntrl_sp01.L1Icache.demand_hits            0                       # Number of cache demand hits
system.ruby.l1_cntrl_sp01.L1Icache.demand_misses           13                       # Number of cache demand misses
system.ruby.l1_cntrl_sp01.L1Icache.demand_accesses           13                       # Number of cache demand accesses
system.ruby.l1_cntrl_sp01.L2cache.demand_hits            0                       # Number of cache demand hits
system.ruby.l1_cntrl_sp01.L2cache.demand_misses          163                       # Number of cache demand misses
system.ruby.l1_cntrl_sp01.L2cache.demand_accesses          163                       # Number of cache demand accesses
system.ruby.network.routers3.percent_links_utilized     0.011083                      
system.ruby.network.routers3.msg_count.Request_Control::2          163                      
system.ruby.network.routers3.msg_count.Request_Control::3            2                      
system.ruby.network.routers3.msg_count.Response_Data::4          266                      
system.ruby.network.routers3.msg_count.Response_Control::4         3863                      
system.ruby.network.routers3.msg_count.Broadcast_Control::3         3075                      
system.ruby.network.routers3.msg_count.Unblock_Control::5          163                      
system.ruby.network.routers3.msg_bytes.Request_Control::2         1304                      
system.ruby.network.routers3.msg_bytes.Request_Control::3           16                      
system.ruby.network.routers3.msg_bytes.Response_Data::4        36176                      
system.ruby.network.routers3.msg_bytes.Response_Control::4        30904                      
system.ruby.network.routers3.msg_bytes.Broadcast_Control::3        24600                      
system.ruby.network.routers3.msg_bytes.Unblock_Control::5         1304                      
system.ruby.l1_cntrl_sp02.L1Dcache.demand_hits          591                       # Number of cache demand hits
system.ruby.l1_cntrl_sp02.L1Dcache.demand_misses          145                       # Number of cache demand misses
system.ruby.l1_cntrl_sp02.L1Dcache.demand_accesses          736                       # Number of cache demand accesses
system.ruby.l1_cntrl_sp02.L1Icache.demand_hits            0                       # Number of cache demand hits
system.ruby.l1_cntrl_sp02.L1Icache.demand_misses           12                       # Number of cache demand misses
system.ruby.l1_cntrl_sp02.L1Icache.demand_accesses           12                       # Number of cache demand accesses
system.ruby.l1_cntrl_sp02.L2cache.demand_hits            0                       # Number of cache demand hits
system.ruby.l1_cntrl_sp02.L2cache.demand_misses          157                       # Number of cache demand misses
system.ruby.l1_cntrl_sp02.L2cache.demand_accesses          157                       # Number of cache demand accesses
system.ruby.network.routers4.percent_links_utilized     0.010986                      
system.ruby.network.routers4.msg_count.Request_Control::2          157                      
system.ruby.network.routers4.msg_count.Request_Control::3            9                      
system.ruby.network.routers4.msg_count.Response_Data::4          262                      
system.ruby.network.routers4.msg_count.Response_Control::4         3823                      
system.ruby.network.routers4.msg_count.Broadcast_Control::3         3085                      
system.ruby.network.routers4.msg_count.Unblock_Control::5          157                      
system.ruby.network.routers4.msg_bytes.Request_Control::2         1256                      
system.ruby.network.routers4.msg_bytes.Request_Control::3           72                      
system.ruby.network.routers4.msg_bytes.Response_Data::4        35632                      
system.ruby.network.routers4.msg_bytes.Response_Control::4        30584                      
system.ruby.network.routers4.msg_bytes.Broadcast_Control::3        24680                      
system.ruby.network.routers4.msg_bytes.Unblock_Control::5         1256                      
system.ruby.l1_cntrl_sp03.L1Dcache.demand_hits          583                       # Number of cache demand hits
system.ruby.l1_cntrl_sp03.L1Dcache.demand_misses          153                       # Number of cache demand misses
system.ruby.l1_cntrl_sp03.L1Dcache.demand_accesses          736                       # Number of cache demand accesses
system.ruby.l1_cntrl_sp03.L1Icache.demand_hits            0                       # Number of cache demand hits
system.ruby.l1_cntrl_sp03.L1Icache.demand_misses           12                       # Number of cache demand misses
system.ruby.l1_cntrl_sp03.L1Icache.demand_accesses           12                       # Number of cache demand accesses
system.ruby.l1_cntrl_sp03.L2cache.demand_hits            0                       # Number of cache demand hits
system.ruby.l1_cntrl_sp03.L2cache.demand_misses          165                       # Number of cache demand misses
system.ruby.l1_cntrl_sp03.L2cache.demand_accesses          165                       # Number of cache demand accesses
system.ruby.network.routers5.percent_links_utilized     0.011051                      
system.ruby.network.routers5.msg_count.Request_Control::2          165                      
system.ruby.network.routers5.msg_count.Request_Control::3            2                      
system.ruby.network.routers5.msg_count.Response_Data::4          265                      
system.ruby.network.routers5.msg_count.Response_Control::4         3838                      
system.ruby.network.routers5.msg_count.Broadcast_Control::3         3079                      
system.ruby.network.routers5.msg_count.Unblock_Control::5          165                      
system.ruby.network.routers5.msg_bytes.Request_Control::2         1320                      
system.ruby.network.routers5.msg_bytes.Request_Control::3           16                      
system.ruby.network.routers5.msg_bytes.Response_Data::4        36040                      
system.ruby.network.routers5.msg_bytes.Response_Control::4        30704                      
system.ruby.network.routers5.msg_bytes.Broadcast_Control::3        24632                      
system.ruby.network.routers5.msg_bytes.Unblock_Control::5         1320                      
system.ruby.l1_pw_cntrl.L1Dcache.demand_hits            0                       # Number of cache demand hits
system.ruby.l1_pw_cntrl.L1Dcache.demand_misses            0                       # Number of cache demand misses
system.ruby.l1_pw_cntrl.L1Dcache.demand_accesses            0                       # Number of cache demand accesses
system.ruby.l1_pw_cntrl.L1Icache.demand_hits            0                       # Number of cache demand hits
system.ruby.l1_pw_cntrl.L1Icache.demand_misses            0                       # Number of cache demand misses
system.ruby.l1_pw_cntrl.L1Icache.demand_accesses            0                       # Number of cache demand accesses
system.ruby.l1_pw_cntrl.L2cache.demand_hits            0                       # Number of cache demand hits
system.ruby.l1_pw_cntrl.L2cache.demand_misses            0                       # Number of cache demand misses
system.ruby.l1_pw_cntrl.L2cache.demand_accesses            0                       # Number of cache demand accesses
system.ruby.network.routers6.percent_links_utilized     0.006077                      
system.ruby.network.routers6.msg_count.Response_Control::4         3232                      
system.ruby.network.routers6.msg_count.Broadcast_Control::3         3232                      
system.ruby.network.routers6.msg_bytes.Response_Control::4        25856                      
system.ruby.network.routers6.msg_bytes.Broadcast_Control::3        25856                      
system.ruby.network.routers7.percent_links_utilized     0.048275                      
system.ruby.network.routers7.msg_count.Request_Control::2         1153                      
system.ruby.network.routers7.msg_count.Response_Data::4         1206                      
system.ruby.network.routers7.msg_count.Response_Control::4         8337                      
system.ruby.network.routers7.msg_count.Writeback_Data::5          933                      
system.ruby.network.routers7.msg_count.Writeback_Control::2         1065                      
system.ruby.network.routers7.msg_count.Writeback_Control::3         1065                      
system.ruby.network.routers7.msg_count.Writeback_Control::5          132                      
system.ruby.network.routers7.msg_count.Broadcast_Control::3         2079                      
system.ruby.network.routers7.msg_count.Unblock_Control::5         1153                      
system.ruby.network.routers7.msg_bytes.Request_Control::2         9224                      
system.ruby.network.routers7.msg_bytes.Response_Data::4       164016                      
system.ruby.network.routers7.msg_bytes.Response_Control::4        66696                      
system.ruby.network.routers7.msg_bytes.Writeback_Data::5       126888                      
system.ruby.network.routers7.msg_bytes.Writeback_Control::2         8520                      
system.ruby.network.routers7.msg_bytes.Writeback_Control::3         8520                      
system.ruby.network.routers7.msg_bytes.Writeback_Control::5         1056                      
system.ruby.network.routers7.msg_bytes.Broadcast_Control::3        16632                      
system.ruby.network.routers7.msg_bytes.Unblock_Control::5         9224                      
system.ruby.network.routers8.percent_links_utilized     0.027642                      
system.ruby.network.routers8.msg_count.Request_Control::2         3265                      
system.ruby.network.routers8.msg_count.Request_Control::3           24                      
system.ruby.network.routers8.msg_count.Response_Data::4         3232                      
system.ruby.network.routers8.msg_count.Response_Control::4        18590                      
system.ruby.network.routers8.msg_count.Writeback_Data::5          933                      
system.ruby.network.routers8.msg_count.Writeback_Control::2         1065                      
system.ruby.network.routers8.msg_count.Writeback_Control::3         1065                      
system.ruby.network.routers8.msg_count.Writeback_Control::5          132                      
system.ruby.network.routers8.msg_count.Broadcast_Control::3        19392                      
system.ruby.network.routers8.msg_count.Unblock_Control::5         3265                      
system.ruby.network.routers8.msg_bytes.Request_Control::2        26120                      
system.ruby.network.routers8.msg_bytes.Request_Control::3          192                      
system.ruby.network.routers8.msg_bytes.Response_Data::4       439552                      
system.ruby.network.routers8.msg_bytes.Response_Control::4       148720                      
system.ruby.network.routers8.msg_bytes.Writeback_Data::5       126888                      
system.ruby.network.routers8.msg_bytes.Writeback_Control::2         8520                      
system.ruby.network.routers8.msg_bytes.Writeback_Control::3         8520                      
system.ruby.network.routers8.msg_bytes.Writeback_Control::5         1056                      
system.ruby.network.routers8.msg_bytes.Broadcast_Control::3       155136                      
system.ruby.network.routers8.msg_bytes.Unblock_Control::5        26120                      
system.ruby.network.msg_count.Request_Control         9867                      
system.ruby.network.msg_count.Response_Data         9687                      
system.ruby.network.msg_count.Response_Control        55770                      
system.ruby.network.msg_count.Writeback_Data         2799                      
system.ruby.network.msg_count.Writeback_Control         6786                      
system.ruby.network.msg_count.Broadcast_Control        42016                      
system.ruby.network.msg_count.Unblock_Control         9795                      
system.ruby.network.msg_byte.Request_Control        78936                      
system.ruby.network.msg_byte.Response_Data      1317432                      
system.ruby.network.msg_byte.Response_Control       446160                      
system.ruby.network.msg_byte.Writeback_Data       380664                      
system.ruby.network.msg_byte.Writeback_Control        54288                      
system.ruby.network.msg_byte.Broadcast_Control       336128                      
system.ruby.network.msg_byte.Unblock_Control        78360                      
system.ruby.memctrl_clk_domain.clock             1500                       # Clock period in ticks
system.cpu_voltage_domain.voltage                   1                       # Voltage in Volts
system.gpu.voltage_domain.voltage                   1                       # Voltage in Volts
system.gpu.clk_domain.clock                      1429                       # Clock period in ticks
system.gpu.shader_mmu.numPagefaults                 0                       # Number of Pagefaults
system.gpu.shader_mmu.numPagewalks                168                       # Number of Pagewalks
system.gpu.shader_mmu.totalRequests               168                       # Total number of requests
system.gpu.shader_mmu.retryFailures                 0                       # Times the retry walk after a pagefault failed
system.gpu.shader_mmu.l2hits                        0                       # Hits in the shared L2
system.gpu.shader_mmu.prefetchHits                  0                       # Number of prefetch hits
system.gpu.shader_mmu.numPrefetches                 0                       # Number of prefetchs
system.gpu.shader_mmu.prefetchFaults                0                       # Number of faults caused by prefetches
system.gpu.shader_mmu.pagefaultLatency::samples            0                       # Latency to complete the pagefault
system.gpu.shader_mmu.pagefaultLatency::mean          nan                       # Latency to complete the pagefault
system.gpu.shader_mmu.pagefaultLatency::gmean          nan                       # Latency to complete the pagefault
system.gpu.shader_mmu.pagefaultLatency::stdev          nan                       # Latency to complete the pagefault
system.gpu.shader_mmu.pagefaultLatency::0            0                       # Latency to complete the pagefault
system.gpu.shader_mmu.pagefaultLatency::1            0                       # Latency to complete the pagefault
system.gpu.shader_mmu.pagefaultLatency::2            0                       # Latency to complete the pagefault
system.gpu.shader_mmu.pagefaultLatency::3            0                       # Latency to complete the pagefault
system.gpu.shader_mmu.pagefaultLatency::4            0                       # Latency to complete the pagefault
system.gpu.shader_mmu.pagefaultLatency::5            0                       # Latency to complete the pagefault
system.gpu.shader_mmu.pagefaultLatency::6            0                       # Latency to complete the pagefault
system.gpu.shader_mmu.pagefaultLatency::7            0                       # Latency to complete the pagefault
system.gpu.shader_mmu.pagefaultLatency::8            0                       # Latency to complete the pagefault
system.gpu.shader_mmu.pagefaultLatency::9            0                       # Latency to complete the pagefault
system.gpu.shader_mmu.pagefaultLatency::10            0                       # Latency to complete the pagefault
system.gpu.shader_mmu.pagefaultLatency::11            0                       # Latency to complete the pagefault
system.gpu.shader_mmu.pagefaultLatency::12            0                       # Latency to complete the pagefault
system.gpu.shader_mmu.pagefaultLatency::13            0                       # Latency to complete the pagefault
system.gpu.shader_mmu.pagefaultLatency::14            0                       # Latency to complete the pagefault
system.gpu.shader_mmu.pagefaultLatency::15            0                       # Latency to complete the pagefault
system.gpu.shader_mmu.pagefaultLatency::16            0                       # Latency to complete the pagefault
system.gpu.shader_mmu.pagefaultLatency::17            0                       # Latency to complete the pagefault
system.gpu.shader_mmu.pagefaultLatency::18            0                       # Latency to complete the pagefault
system.gpu.shader_mmu.pagefaultLatency::19            0                       # Latency to complete the pagefault
system.gpu.shader_mmu.pagefaultLatency::20            0                       # Latency to complete the pagefault
system.gpu.shader_mmu.pagefaultLatency::21            0                       # Latency to complete the pagefault
system.gpu.shader_mmu.pagefaultLatency::22            0                       # Latency to complete the pagefault
system.gpu.shader_mmu.pagefaultLatency::23            0                       # Latency to complete the pagefault
system.gpu.shader_mmu.pagefaultLatency::24            0                       # Latency to complete the pagefault
system.gpu.shader_mmu.pagefaultLatency::25            0                       # Latency to complete the pagefault
system.gpu.shader_mmu.pagefaultLatency::26            0                       # Latency to complete the pagefault
system.gpu.shader_mmu.pagefaultLatency::27            0                       # Latency to complete the pagefault
system.gpu.shader_mmu.pagefaultLatency::28            0                       # Latency to complete the pagefault
system.gpu.shader_mmu.pagefaultLatency::29            0                       # Latency to complete the pagefault
system.gpu.shader_mmu.pagefaultLatency::30            0                       # Latency to complete the pagefault
system.gpu.shader_mmu.pagefaultLatency::31            0                       # Latency to complete the pagefault
system.gpu.shader_mmu.pagefaultLatency::total            0                       # Latency to complete the pagefault
system.gpu.shader_mmu.concurrentWalks::samples          168                       # Number of outstanding walks
system.gpu.shader_mmu.concurrentWalks::mean            0                       # Number of outstanding walks
system.gpu.shader_mmu.concurrentWalks::gmean            0                       # Number of outstanding walks
system.gpu.shader_mmu.concurrentWalks::stdev            0                       # Number of outstanding walks
system.gpu.shader_mmu.concurrentWalks::0          168    100.00%    100.00% # Number of outstanding walks
system.gpu.shader_mmu.concurrentWalks::1            0      0.00%    100.00% # Number of outstanding walks
system.gpu.shader_mmu.concurrentWalks::2            0      0.00%    100.00% # Number of outstanding walks
system.gpu.shader_mmu.concurrentWalks::3            0      0.00%    100.00% # Number of outstanding walks
system.gpu.shader_mmu.concurrentWalks::4            0      0.00%    100.00% # Number of outstanding walks
system.gpu.shader_mmu.concurrentWalks::5            0      0.00%    100.00% # Number of outstanding walks
system.gpu.shader_mmu.concurrentWalks::6            0      0.00%    100.00% # Number of outstanding walks
system.gpu.shader_mmu.concurrentWalks::7            0      0.00%    100.00% # Number of outstanding walks
system.gpu.shader_mmu.concurrentWalks::8            0      0.00%    100.00% # Number of outstanding walks
system.gpu.shader_mmu.concurrentWalks::9            0      0.00%    100.00% # Number of outstanding walks
system.gpu.shader_mmu.concurrentWalks::10            0      0.00%    100.00% # Number of outstanding walks
system.gpu.shader_mmu.concurrentWalks::11            0      0.00%    100.00% # Number of outstanding walks
system.gpu.shader_mmu.concurrentWalks::12            0      0.00%    100.00% # Number of outstanding walks
system.gpu.shader_mmu.concurrentWalks::13            0      0.00%    100.00% # Number of outstanding walks
system.gpu.shader_mmu.concurrentWalks::14            0      0.00%    100.00% # Number of outstanding walks
system.gpu.shader_mmu.concurrentWalks::15            0      0.00%    100.00% # Number of outstanding walks
system.gpu.shader_mmu.concurrentWalks::total          168                       # Number of outstanding walks
system.gpu.shader_mmu.pagewalkLatency::samples          168                       # Latency to complete the pagewalk
system.gpu.shader_mmu.pagewalkLatency::mean            0                       # Latency to complete the pagewalk
system.gpu.shader_mmu.pagewalkLatency::gmean            0                       # Latency to complete the pagewalk
system.gpu.shader_mmu.pagewalkLatency::stdev            0                       # Latency to complete the pagewalk
system.gpu.shader_mmu.pagewalkLatency::0          168    100.00%    100.00% # Latency to complete the pagewalk
system.gpu.shader_mmu.pagewalkLatency::1            0      0.00%    100.00% # Latency to complete the pagewalk
system.gpu.shader_mmu.pagewalkLatency::2            0      0.00%    100.00% # Latency to complete the pagewalk
system.gpu.shader_mmu.pagewalkLatency::3            0      0.00%    100.00% # Latency to complete the pagewalk
system.gpu.shader_mmu.pagewalkLatency::4            0      0.00%    100.00% # Latency to complete the pagewalk
system.gpu.shader_mmu.pagewalkLatency::5            0      0.00%    100.00% # Latency to complete the pagewalk
system.gpu.shader_mmu.pagewalkLatency::6            0      0.00%    100.00% # Latency to complete the pagewalk
system.gpu.shader_mmu.pagewalkLatency::7            0      0.00%    100.00% # Latency to complete the pagewalk
system.gpu.shader_mmu.pagewalkLatency::8            0      0.00%    100.00% # Latency to complete the pagewalk
system.gpu.shader_mmu.pagewalkLatency::9            0      0.00%    100.00% # Latency to complete the pagewalk
system.gpu.shader_mmu.pagewalkLatency::10            0      0.00%    100.00% # Latency to complete the pagewalk
system.gpu.shader_mmu.pagewalkLatency::11            0      0.00%    100.00% # Latency to complete the pagewalk
system.gpu.shader_mmu.pagewalkLatency::12            0      0.00%    100.00% # Latency to complete the pagewalk
system.gpu.shader_mmu.pagewalkLatency::13            0      0.00%    100.00% # Latency to complete the pagewalk
system.gpu.shader_mmu.pagewalkLatency::14            0      0.00%    100.00% # Latency to complete the pagewalk
system.gpu.shader_mmu.pagewalkLatency::15            0      0.00%    100.00% # Latency to complete the pagewalk
system.gpu.shader_mmu.pagewalkLatency::16            0      0.00%    100.00% # Latency to complete the pagewalk
system.gpu.shader_mmu.pagewalkLatency::17            0      0.00%    100.00% # Latency to complete the pagewalk
system.gpu.shader_mmu.pagewalkLatency::18            0      0.00%    100.00% # Latency to complete the pagewalk
system.gpu.shader_mmu.pagewalkLatency::19            0      0.00%    100.00% # Latency to complete the pagewalk
system.gpu.shader_mmu.pagewalkLatency::20            0      0.00%    100.00% # Latency to complete the pagewalk
system.gpu.shader_mmu.pagewalkLatency::21            0      0.00%    100.00% # Latency to complete the pagewalk
system.gpu.shader_mmu.pagewalkLatency::22            0      0.00%    100.00% # Latency to complete the pagewalk
system.gpu.shader_mmu.pagewalkLatency::23            0      0.00%    100.00% # Latency to complete the pagewalk
system.gpu.shader_mmu.pagewalkLatency::24            0      0.00%    100.00% # Latency to complete the pagewalk
system.gpu.shader_mmu.pagewalkLatency::25            0      0.00%    100.00% # Latency to complete the pagewalk
system.gpu.shader_mmu.pagewalkLatency::26            0      0.00%    100.00% # Latency to complete the pagewalk
system.gpu.shader_mmu.pagewalkLatency::27            0      0.00%    100.00% # Latency to complete the pagewalk
system.gpu.shader_mmu.pagewalkLatency::28            0      0.00%    100.00% # Latency to complete the pagewalk
system.gpu.shader_mmu.pagewalkLatency::29            0      0.00%    100.00% # Latency to complete the pagewalk
system.gpu.shader_mmu.pagewalkLatency::30            0      0.00%    100.00% # Latency to complete the pagewalk
system.gpu.shader_mmu.pagewalkLatency::31            0      0.00%    100.00% # Latency to complete the pagewalk
system.gpu.shader_mmu.pagewalkLatency::total          168                       # Latency to complete the pagewalk
system.gpu.kernels_completed                        2                       # Number of kernels completed
system.gpu.shader_cores0.itb.hits                   0                       # Number of hits in this TLB
system.gpu.shader_cores0.itb.misses                 0                       # Number of misses in this TLB
system.gpu.shader_cores0.itb.hitRate              nan                       # Hit rate for this TLB
system.gpu.shader_cores0.local_loads                0                       # Number of loads from local space
system.gpu.shader_cores0.local_stores               0                       # Number of stores to local space
system.gpu.shader_cores0.shared_loads            5056                       # Number of loads from shared space
system.gpu.shader_cores0.shared_stores           3072                       # Number of stores to shared space
system.gpu.shader_cores0.param_kernel_loads         7296                       # Number of loads from kernel parameter space
system.gpu.shader_cores0.param_local_loads            0                       # Number of loads from local parameter space
system.gpu.shader_cores0.param_local_stores            0                       # Number of stores to local parameter space
system.gpu.shader_cores0.const_loads                0                       # Number of loads from constant space
system.gpu.shader_cores0.tex_loads                  0                       # Number of loads from texture space
system.gpu.shader_cores0.global_loads            8256                       # Number of loads from global space
system.gpu.shader_cores0.global_stores           3136                       # Number of stores to global space
system.gpu.shader_cores0.surf_loads                 0                       # Number of loads from surface space
system.gpu.shader_cores0.generic_loads              0                       # Number of loads from generic spaces (global, shared, local)
system.gpu.shader_cores0.generic_stores             0                       # Number of stores to generic spaces (global, shared, local)
system.gpu.shader_cores0.inst_cache_requests           12                       # Number of instruction cache requests sent
system.gpu.shader_cores0.inst_cache_retries            0                       # Number of instruction cache retries
system.gpu.shader_cores0.inst_counts::0             0                       # Inst counts: 1: ALU, 2: MAD, 3: CTRL, 4: SFU, 5: MEM, 6: TEX, 7: NOP
system.gpu.shader_cores0.inst_counts::1        130176                       # Inst counts: 1: ALU, 2: MAD, 3: CTRL, 4: SFU, 5: MEM, 6: TEX, 7: NOP
system.gpu.shader_cores0.inst_counts::2          2048                       # Inst counts: 1: ALU, 2: MAD, 3: CTRL, 4: SFU, 5: MEM, 6: TEX, 7: NOP
system.gpu.shader_cores0.inst_counts::3         20416                       # Inst counts: 1: ALU, 2: MAD, 3: CTRL, 4: SFU, 5: MEM, 6: TEX, 7: NOP
system.gpu.shader_cores0.inst_counts::4          6144                       # Inst counts: 1: ALU, 2: MAD, 3: CTRL, 4: SFU, 5: MEM, 6: TEX, 7: NOP
system.gpu.shader_cores0.inst_counts::5         26816                       # Inst counts: 1: ALU, 2: MAD, 3: CTRL, 4: SFU, 5: MEM, 6: TEX, 7: NOP
system.gpu.shader_cores0.inst_counts::6             0                       # Inst counts: 1: ALU, 2: MAD, 3: CTRL, 4: SFU, 5: MEM, 6: TEX, 7: NOP
system.gpu.shader_cores0.inst_counts::7             0                       # Inst counts: 1: ALU, 2: MAD, 3: CTRL, 4: SFU, 5: MEM, 6: TEX, 7: NOP
system.gpu.shader_cores0.activeCycles            6477                       # Number of cycles this shader was executing a CTA
system.gpu.shader_cores0.notStalledCycles         4682                       # Number of cycles this shader was actually executing at least one instance
system.gpu.shader_cores0.instInstances         185600                       # Total instructions executed by all PEs in the core
system.gpu.shader_cores0.instPerCycle       28.655242                       # Instruction instances per cycle
system.gpu.shader_cores0.kernels_completed            2                       # Number of kernels completed
system.gpu.shader_cores0.lsq.data_tlb.hits            0                       # Number of hits in this TLB
system.gpu.shader_cores0.lsq.data_tlb.misses            0                       # Number of misses in this TLB
system.gpu.shader_cores0.lsq.data_tlb.hitRate          nan                       # Hit rate for this TLB
system.gpu.shader_cores0.lsq.warpInstBufActive::samples      8009800                       # Histogram of number of active warp inst buffers at a given time
system.gpu.shader_cores0.lsq.warpInstBufActive::mean     8.340640                       # Histogram of number of active warp inst buffers at a given time
system.gpu.shader_cores0.lsq.warpInstBufActive::gmean          nan                       # Histogram of number of active warp inst buffers at a given time
system.gpu.shader_cores0.lsq.warpInstBufActive::stdev    11.461688                       # Histogram of number of active warp inst buffers at a given time
system.gpu.shader_cores0.lsq.warpInstBufActive::0      2860020     35.71%     35.71% # Histogram of number of active warp inst buffers at a given time
system.gpu.shader_cores0.lsq.warpInstBufActive::1       998089     12.46%     48.17% # Histogram of number of active warp inst buffers at a given time
system.gpu.shader_cores0.lsq.warpInstBufActive::2       557604      6.96%     55.13% # Histogram of number of active warp inst buffers at a given time
system.gpu.shader_cores0.lsq.warpInstBufActive::3       217376      2.71%     57.84% # Histogram of number of active warp inst buffers at a given time
system.gpu.shader_cores0.lsq.warpInstBufActive::4       193841      2.42%     60.26% # Histogram of number of active warp inst buffers at a given time
system.gpu.shader_cores0.lsq.warpInstBufActive::5       176940      2.21%     62.47% # Histogram of number of active warp inst buffers at a given time
system.gpu.shader_cores0.lsq.warpInstBufActive::6       146377      1.83%     64.30% # Histogram of number of active warp inst buffers at a given time
system.gpu.shader_cores0.lsq.warpInstBufActive::7       116959      1.46%     65.76% # Histogram of number of active warp inst buffers at a given time
system.gpu.shader_cores0.lsq.warpInstBufActive::8       188848      2.36%     68.12% # Histogram of number of active warp inst buffers at a given time
system.gpu.shader_cores0.lsq.warpInstBufActive::9        94943      1.19%     69.30% # Histogram of number of active warp inst buffers at a given time
system.gpu.shader_cores0.lsq.warpInstBufActive::10       148754      1.86%     71.16% # Histogram of number of active warp inst buffers at a given time
system.gpu.shader_cores0.lsq.warpInstBufActive::11        65140      0.81%     71.97% # Histogram of number of active warp inst buffers at a given time
system.gpu.shader_cores0.lsq.warpInstBufActive::12        95067      1.19%     73.16% # Histogram of number of active warp inst buffers at a given time
system.gpu.shader_cores0.lsq.warpInstBufActive::13       200940      2.51%     75.67% # Histogram of number of active warp inst buffers at a given time
system.gpu.shader_cores0.lsq.warpInstBufActive::14       210516      2.63%     78.30% # Histogram of number of active warp inst buffers at a given time
system.gpu.shader_cores0.lsq.warpInstBufActive::15        84979      1.06%     79.36% # Histogram of number of active warp inst buffers at a given time
system.gpu.shader_cores0.lsq.warpInstBufActive::16        83584      1.04%     80.40% # Histogram of number of active warp inst buffers at a given time
system.gpu.shader_cores0.lsq.warpInstBufActive::17        33930      0.42%     80.82% # Histogram of number of active warp inst buffers at a given time
system.gpu.shader_cores0.lsq.warpInstBufActive::18         8821      0.11%     80.93% # Histogram of number of active warp inst buffers at a given time
system.gpu.shader_cores0.lsq.warpInstBufActive::19        11416      0.14%     81.08% # Histogram of number of active warp inst buffers at a given time
system.gpu.shader_cores0.lsq.warpInstBufActive::20         7136      0.09%     81.17% # Histogram of number of active warp inst buffers at a given time
system.gpu.shader_cores0.lsq.warpInstBufActive::21        12845      0.16%     81.33% # Histogram of number of active warp inst buffers at a given time
system.gpu.shader_cores0.lsq.warpInstBufActive::22         8564      0.11%     81.43% # Histogram of number of active warp inst buffers at a given time
system.gpu.shader_cores0.lsq.warpInstBufActive::23         7440      0.09%     81.53% # Histogram of number of active warp inst buffers at a given time
system.gpu.shader_cores0.lsq.warpInstBufActive::24        47936      0.60%     82.13% # Histogram of number of active warp inst buffers at a given time
system.gpu.shader_cores0.lsq.warpInstBufActive::25        35148      0.44%     82.56% # Histogram of number of active warp inst buffers at a given time
system.gpu.shader_cores0.lsq.warpInstBufActive::26        39253      0.49%     83.05% # Histogram of number of active warp inst buffers at a given time
system.gpu.shader_cores0.lsq.warpInstBufActive::27        43726      0.55%     83.60% # Histogram of number of active warp inst buffers at a given time
system.gpu.shader_cores0.lsq.warpInstBufActive::28       101863      1.27%     84.87% # Histogram of number of active warp inst buffers at a given time
system.gpu.shader_cores0.lsq.warpInstBufActive::29        92178      1.15%     86.02% # Histogram of number of active warp inst buffers at a given time
system.gpu.shader_cores0.lsq.warpInstBufActive::30       159327      1.99%     88.01% # Histogram of number of active warp inst buffers at a given time
system.gpu.shader_cores0.lsq.warpInstBufActive::31       184878      2.31%     90.32% # Histogram of number of active warp inst buffers at a given time
system.gpu.shader_cores0.lsq.warpInstBufActive::32       775362      9.68%    100.00% # Histogram of number of active warp inst buffers at a given time
system.gpu.shader_cores0.lsq.warpInstBufActive::33            0      0.00%    100.00% # Histogram of number of active warp inst buffers at a given time
system.gpu.shader_cores0.lsq.warpInstBufActive::34            0      0.00%    100.00% # Histogram of number of active warp inst buffers at a given time
system.gpu.shader_cores0.lsq.warpInstBufActive::35            0      0.00%    100.00% # Histogram of number of active warp inst buffers at a given time
system.gpu.shader_cores0.lsq.warpInstBufActive::36            0      0.00%    100.00% # Histogram of number of active warp inst buffers at a given time
system.gpu.shader_cores0.lsq.warpInstBufActive::37            0      0.00%    100.00% # Histogram of number of active warp inst buffers at a given time
system.gpu.shader_cores0.lsq.warpInstBufActive::38            0      0.00%    100.00% # Histogram of number of active warp inst buffers at a given time
system.gpu.shader_cores0.lsq.warpInstBufActive::39            0      0.00%    100.00% # Histogram of number of active warp inst buffers at a given time
system.gpu.shader_cores0.lsq.warpInstBufActive::40            0      0.00%    100.00% # Histogram of number of active warp inst buffers at a given time
system.gpu.shader_cores0.lsq.warpInstBufActive::41            0      0.00%    100.00% # Histogram of number of active warp inst buffers at a given time
system.gpu.shader_cores0.lsq.warpInstBufActive::42            0      0.00%    100.00% # Histogram of number of active warp inst buffers at a given time
system.gpu.shader_cores0.lsq.warpInstBufActive::43            0      0.00%    100.00% # Histogram of number of active warp inst buffers at a given time
system.gpu.shader_cores0.lsq.warpInstBufActive::44            0      0.00%    100.00% # Histogram of number of active warp inst buffers at a given time
system.gpu.shader_cores0.lsq.warpInstBufActive::45            0      0.00%    100.00% # Histogram of number of active warp inst buffers at a given time
system.gpu.shader_cores0.lsq.warpInstBufActive::46            0      0.00%    100.00% # Histogram of number of active warp inst buffers at a given time
system.gpu.shader_cores0.lsq.warpInstBufActive::47            0      0.00%    100.00% # Histogram of number of active warp inst buffers at a given time
system.gpu.shader_cores0.lsq.warpInstBufActive::48            0      0.00%    100.00% # Histogram of number of active warp inst buffers at a given time
system.gpu.shader_cores0.lsq.warpInstBufActive::49            0      0.00%    100.00% # Histogram of number of active warp inst buffers at a given time
system.gpu.shader_cores0.lsq.warpInstBufActive::50            0      0.00%    100.00% # Histogram of number of active warp inst buffers at a given time
system.gpu.shader_cores0.lsq.warpInstBufActive::51            0      0.00%    100.00% # Histogram of number of active warp inst buffers at a given time
system.gpu.shader_cores0.lsq.warpInstBufActive::52            0      0.00%    100.00% # Histogram of number of active warp inst buffers at a given time
system.gpu.shader_cores0.lsq.warpInstBufActive::53            0      0.00%    100.00% # Histogram of number of active warp inst buffers at a given time
system.gpu.shader_cores0.lsq.warpInstBufActive::54            0      0.00%    100.00% # Histogram of number of active warp inst buffers at a given time
system.gpu.shader_cores0.lsq.warpInstBufActive::55            0      0.00%    100.00% # Histogram of number of active warp inst buffers at a given time
system.gpu.shader_cores0.lsq.warpInstBufActive::56            0      0.00%    100.00% # Histogram of number of active warp inst buffers at a given time
system.gpu.shader_cores0.lsq.warpInstBufActive::57            0      0.00%    100.00% # Histogram of number of active warp inst buffers at a given time
system.gpu.shader_cores0.lsq.warpInstBufActive::58            0      0.00%    100.00% # Histogram of number of active warp inst buffers at a given time
system.gpu.shader_cores0.lsq.warpInstBufActive::59            0      0.00%    100.00% # Histogram of number of active warp inst buffers at a given time
system.gpu.shader_cores0.lsq.warpInstBufActive::60            0      0.00%    100.00% # Histogram of number of active warp inst buffers at a given time
system.gpu.shader_cores0.lsq.warpInstBufActive::61            0      0.00%    100.00% # Histogram of number of active warp inst buffers at a given time
system.gpu.shader_cores0.lsq.warpInstBufActive::62            0      0.00%    100.00% # Histogram of number of active warp inst buffers at a given time
system.gpu.shader_cores0.lsq.warpInstBufActive::63            0      0.00%    100.00% # Histogram of number of active warp inst buffers at a given time
system.gpu.shader_cores0.lsq.warpInstBufActive::64            0      0.00%    100.00% # Histogram of number of active warp inst buffers at a given time
system.gpu.shader_cores0.lsq.warpInstBufActive::total      8009800                       # Histogram of number of active warp inst buffers at a given time
system.gpu.shader_cores0.lsq.cacheAccesses     0.002975                       # Average number of concurrent outstanding cache accesses
system.gpu.shader_cores0.lsq.writebackBlockedCycles            4                       # Number of cycles blocked for core writeback stage
system.gpu.shader_cores0.lsq.mshrHitQueued          176                       # Number of hits on blocked lines in MSHRs
system.gpu.shader_cores0.lsq.mshrsFullCycles            0                       # Number of cycles stalled waiting for an MSHR
system.gpu.shader_cores0.lsq.mshrsFullCount            0                       # Number of times MSHRs filled
system.gpu.shader_cores0.lsq.warpCoalescedAccesses::samples          416                       # Number of coalesced accesses per warp instruction
system.gpu.shader_cores0.lsq.warpCoalescedAccesses::mean     1.769231                       # Number of coalesced accesses per warp instruction
system.gpu.shader_cores0.lsq.warpCoalescedAccesses::gmean     1.608176                       # Number of coalesced accesses per warp instruction
system.gpu.shader_cores0.lsq.warpCoalescedAccesses::stdev     0.763388                       # Number of coalesced accesses per warp instruction
system.gpu.shader_cores0.lsq.warpCoalescedAccesses::0            0      0.00%      0.00% # Number of coalesced accesses per warp instruction
system.gpu.shader_cores0.lsq.warpCoalescedAccesses::1          180     43.27%     43.27% # Number of coalesced accesses per warp instruction
system.gpu.shader_cores0.lsq.warpCoalescedAccesses::2          152     36.54%     79.81% # Number of coalesced accesses per warp instruction
system.gpu.shader_cores0.lsq.warpCoalescedAccesses::3           84     20.19%    100.00% # Number of coalesced accesses per warp instruction
system.gpu.shader_cores0.lsq.warpCoalescedAccesses::4            0      0.00%    100.00% # Number of coalesced accesses per warp instruction
system.gpu.shader_cores0.lsq.warpCoalescedAccesses::5            0      0.00%    100.00% # Number of coalesced accesses per warp instruction
system.gpu.shader_cores0.lsq.warpCoalescedAccesses::6            0      0.00%    100.00% # Number of coalesced accesses per warp instruction
system.gpu.shader_cores0.lsq.warpCoalescedAccesses::7            0      0.00%    100.00% # Number of coalesced accesses per warp instruction
system.gpu.shader_cores0.lsq.warpCoalescedAccesses::8            0      0.00%    100.00% # Number of coalesced accesses per warp instruction
system.gpu.shader_cores0.lsq.warpCoalescedAccesses::9            0      0.00%    100.00% # Number of coalesced accesses per warp instruction
system.gpu.shader_cores0.lsq.warpCoalescedAccesses::10            0      0.00%    100.00% # Number of coalesced accesses per warp instruction
system.gpu.shader_cores0.lsq.warpCoalescedAccesses::11            0      0.00%    100.00% # Number of coalesced accesses per warp instruction
system.gpu.shader_cores0.lsq.warpCoalescedAccesses::12            0      0.00%    100.00% # Number of coalesced accesses per warp instruction
system.gpu.shader_cores0.lsq.warpCoalescedAccesses::13            0      0.00%    100.00% # Number of coalesced accesses per warp instruction
system.gpu.shader_cores0.lsq.warpCoalescedAccesses::14            0      0.00%    100.00% # Number of coalesced accesses per warp instruction
system.gpu.shader_cores0.lsq.warpCoalescedAccesses::15            0      0.00%    100.00% # Number of coalesced accesses per warp instruction
system.gpu.shader_cores0.lsq.warpCoalescedAccesses::16            0      0.00%    100.00% # Number of coalesced accesses per warp instruction
system.gpu.shader_cores0.lsq.warpCoalescedAccesses::17            0      0.00%    100.00% # Number of coalesced accesses per warp instruction
system.gpu.shader_cores0.lsq.warpCoalescedAccesses::18            0      0.00%    100.00% # Number of coalesced accesses per warp instruction
system.gpu.shader_cores0.lsq.warpCoalescedAccesses::19            0      0.00%    100.00% # Number of coalesced accesses per warp instruction
system.gpu.shader_cores0.lsq.warpCoalescedAccesses::20            0      0.00%    100.00% # Number of coalesced accesses per warp instruction
system.gpu.shader_cores0.lsq.warpCoalescedAccesses::21            0      0.00%    100.00% # Number of coalesced accesses per warp instruction
system.gpu.shader_cores0.lsq.warpCoalescedAccesses::22            0      0.00%    100.00% # Number of coalesced accesses per warp instruction
system.gpu.shader_cores0.lsq.warpCoalescedAccesses::23            0      0.00%    100.00% # Number of coalesced accesses per warp instruction
system.gpu.shader_cores0.lsq.warpCoalescedAccesses::24            0      0.00%    100.00% # Number of coalesced accesses per warp instruction
system.gpu.shader_cores0.lsq.warpCoalescedAccesses::25            0      0.00%    100.00% # Number of coalesced accesses per warp instruction
system.gpu.shader_cores0.lsq.warpCoalescedAccesses::26            0      0.00%    100.00% # Number of coalesced accesses per warp instruction
system.gpu.shader_cores0.lsq.warpCoalescedAccesses::27            0      0.00%    100.00% # Number of coalesced accesses per warp instruction
system.gpu.shader_cores0.lsq.warpCoalescedAccesses::28            0      0.00%    100.00% # Number of coalesced accesses per warp instruction
system.gpu.shader_cores0.lsq.warpCoalescedAccesses::29            0      0.00%    100.00% # Number of coalesced accesses per warp instruction
system.gpu.shader_cores0.lsq.warpCoalescedAccesses::30            0      0.00%    100.00% # Number of coalesced accesses per warp instruction
system.gpu.shader_cores0.lsq.warpCoalescedAccesses::31            0      0.00%    100.00% # Number of coalesced accesses per warp instruction
system.gpu.shader_cores0.lsq.warpCoalescedAccesses::32            0      0.00%    100.00% # Number of coalesced accesses per warp instruction
system.gpu.shader_cores0.lsq.warpCoalescedAccesses::total          416                       # Number of coalesced accesses per warp instruction
system.gpu.shader_cores0.lsq.warpLatencyRead::samples          288                       # Latency in cycles for whole warp to finish the read
system.gpu.shader_cores0.lsq.warpLatencyRead::mean   141.708333                       # Latency in cycles for whole warp to finish the read
system.gpu.shader_cores0.lsq.warpLatencyRead::gmean    54.218422                       # Latency in cycles for whole warp to finish the read
system.gpu.shader_cores0.lsq.warpLatencyRead::stdev   187.756918                       # Latency in cycles for whole warp to finish the read
system.gpu.shader_cores0.lsq.warpLatencyRead::0-63          149     51.74%     51.74% # Latency in cycles for whole warp to finish the read
system.gpu.shader_cores0.lsq.warpLatencyRead::64-127           42     14.58%     66.32% # Latency in cycles for whole warp to finish the read
system.gpu.shader_cores0.lsq.warpLatencyRead::128-191           22      7.64%     73.96% # Latency in cycles for whole warp to finish the read
system.gpu.shader_cores0.lsq.warpLatencyRead::192-255           13      4.51%     78.47% # Latency in cycles for whole warp to finish the read
system.gpu.shader_cores0.lsq.warpLatencyRead::256-319           11      3.82%     82.29% # Latency in cycles for whole warp to finish the read
system.gpu.shader_cores0.lsq.warpLatencyRead::320-383           12      4.17%     86.46% # Latency in cycles for whole warp to finish the read
system.gpu.shader_cores0.lsq.warpLatencyRead::384-447           12      4.17%     90.62% # Latency in cycles for whole warp to finish the read
system.gpu.shader_cores0.lsq.warpLatencyRead::448-511            7      2.43%     93.06% # Latency in cycles for whole warp to finish the read
system.gpu.shader_cores0.lsq.warpLatencyRead::512-575            5      1.74%     94.79% # Latency in cycles for whole warp to finish the read
system.gpu.shader_cores0.lsq.warpLatencyRead::576-639            7      2.43%     97.22% # Latency in cycles for whole warp to finish the read
system.gpu.shader_cores0.lsq.warpLatencyRead::640-703            3      1.04%     98.26% # Latency in cycles for whole warp to finish the read
system.gpu.shader_cores0.lsq.warpLatencyRead::704-767            1      0.35%     98.61% # Latency in cycles for whole warp to finish the read
system.gpu.shader_cores0.lsq.warpLatencyRead::768-831            3      1.04%     99.65% # Latency in cycles for whole warp to finish the read
system.gpu.shader_cores0.lsq.warpLatencyRead::832-895            1      0.35%    100.00% # Latency in cycles for whole warp to finish the read
system.gpu.shader_cores0.lsq.warpLatencyRead::896-959            0      0.00%    100.00% # Latency in cycles for whole warp to finish the read
system.gpu.shader_cores0.lsq.warpLatencyRead::960-1023            0      0.00%    100.00% # Latency in cycles for whole warp to finish the read
system.gpu.shader_cores0.lsq.warpLatencyRead::total          288                       # Latency in cycles for whole warp to finish the read
system.gpu.shader_cores0.lsq.warpLatencyWrite::samples          128                       # Latency in cycles for whole warp to finish the write
system.gpu.shader_cores0.lsq.warpLatencyWrite::mean    24.406250                       # Latency in cycles for whole warp to finish the write
system.gpu.shader_cores0.lsq.warpLatencyWrite::gmean    20.738572                       # Latency in cycles for whole warp to finish the write
system.gpu.shader_cores0.lsq.warpLatencyWrite::stdev    16.021362                       # Latency in cycles for whole warp to finish the write
system.gpu.shader_cores0.lsq.warpLatencyWrite::0-3            0      0.00%      0.00% # Latency in cycles for whole warp to finish the write
system.gpu.shader_cores0.lsq.warpLatencyWrite::4-7            0      0.00%      0.00% # Latency in cycles for whole warp to finish the write
system.gpu.shader_cores0.lsq.warpLatencyWrite::8-11            0      0.00%      0.00% # Latency in cycles for whole warp to finish the write
system.gpu.shader_cores0.lsq.warpLatencyWrite::12-15           53     41.41%     41.41% # Latency in cycles for whole warp to finish the write
system.gpu.shader_cores0.lsq.warpLatencyWrite::16-19           28     21.88%     63.28% # Latency in cycles for whole warp to finish the write
system.gpu.shader_cores0.lsq.warpLatencyWrite::20-23            4      3.12%     66.41% # Latency in cycles for whole warp to finish the write
system.gpu.shader_cores0.lsq.warpLatencyWrite::24-27           13     10.16%     76.56% # Latency in cycles for whole warp to finish the write
system.gpu.shader_cores0.lsq.warpLatencyWrite::28-31            6      4.69%     81.25% # Latency in cycles for whole warp to finish the write
system.gpu.shader_cores0.lsq.warpLatencyWrite::32-35            0      0.00%     81.25% # Latency in cycles for whole warp to finish the write
system.gpu.shader_cores0.lsq.warpLatencyWrite::36-39            0      0.00%     81.25% # Latency in cycles for whole warp to finish the write
system.gpu.shader_cores0.lsq.warpLatencyWrite::40-43            0      0.00%     81.25% # Latency in cycles for whole warp to finish the write
system.gpu.shader_cores0.lsq.warpLatencyWrite::44-47            1      0.78%     82.03% # Latency in cycles for whole warp to finish the write
system.gpu.shader_cores0.lsq.warpLatencyWrite::48-51            5      3.91%     85.94% # Latency in cycles for whole warp to finish the write
system.gpu.shader_cores0.lsq.warpLatencyWrite::52-55            5      3.91%     89.84% # Latency in cycles for whole warp to finish the write
system.gpu.shader_cores0.lsq.warpLatencyWrite::56-59            6      4.69%     94.53% # Latency in cycles for whole warp to finish the write
system.gpu.shader_cores0.lsq.warpLatencyWrite::60-63            7      5.47%    100.00% # Latency in cycles for whole warp to finish the write
system.gpu.shader_cores0.lsq.warpLatencyWrite::total          128                       # Latency in cycles for whole warp to finish the write
system.gpu.shader_cores0.lsq.warpLatencyFence::samples          288                       # Latency in cycles for whole warp to finish the fence
system.gpu.shader_cores0.lsq.warpLatencyFence::mean     8.434028                       # Latency in cycles for whole warp to finish the fence
system.gpu.shader_cores0.lsq.warpLatencyFence::gmean     7.500398                       # Latency in cycles for whole warp to finish the fence
system.gpu.shader_cores0.lsq.warpLatencyFence::stdev     5.165804                       # Latency in cycles for whole warp to finish the fence
system.gpu.shader_cores0.lsq.warpLatencyFence::0-1            0      0.00%      0.00% # Latency in cycles for whole warp to finish the fence
system.gpu.shader_cores0.lsq.warpLatencyFence::2-3            0      0.00%      0.00% # Latency in cycles for whole warp to finish the fence
[...]
system.ruby.L1Cache_Controller.MM.L2_Replacement |           0      0.00%      0.00% |           0      0.00%      0.00% |           0      0.00%      0.00% |           0      0.00%      0.00% |           0      0.00%      0.00% |           0      0.00%      0.00% |         503    100.00%    100.00%
system.ruby.L1Cache_Controller.MM.L2_Replacement::total          503                      
system.ruby.L1Cache_Controller.MM.L1_to_L2 |         701     56.31%     56.31% |           0      0.00%     56.31% |           0      0.00%     56.31% |           0      0.00%     56.31% |           0      0.00%     56.31% |           0      0.00%     56.31% |         544     43.69%    100.00%
system.ruby.L1Cache_Controller.MM.L1_to_L2::total         1245                      
system.ruby.L1Cache_Controller.MM.Trigger_L2_to_L1D |         453    100.00%    100.00% |           0      0.00%    100.00% |           0      0.00%    100.00% |           0      0.00%    100.00% |           0      0.00%    100.00% |           0      0.00%    100.00% |           0      0.00%    100.00%
system.ruby.L1Cache_Controller.MM.Trigger_L2_to_L1D::total          453                      
system.ruby.L1Cache_Controller.MM.Other_GETX |           8      4.28%      4.28% |          44     23.53%     27.81% |          46     24.60%     52.41% |          44     23.53%     75.94% |          45     24.06%    100.00% |           0      0.00%    100.00% |           0      0.00%    100.00%
system.ruby.L1Cache_Controller.MM.Other_GETX::total          187                      
system.ruby.L1Cache_Controller.MM.Other_GETS |         285     57.46%     57.46% |          37      7.46%     64.92% |          42      8.47%     73.39% |          36      7.26%     80.65% |          43      8.67%     89.31% |           0      0.00%     89.31% |          53     10.69%    100.00%
system.ruby.L1Cache_Controller.MM.Other_GETS::total          496                      
system.ruby.L1Cache_Controller.IR.Load   |          44    100.00%    100.00% |           0      0.00%    100.00% |           0      0.00%    100.00% |           0      0.00%    100.00% |           0      0.00%    100.00% |           0      0.00%    100.00% |           0      0.00%    100.00%
system.ruby.L1Cache_Controller.IR.Load::total           44                      
system.ruby.L1Cache_Controller.MR.Load   |          21    100.00%    100.00% |           0      0.00%    100.00% |           0      0.00%    100.00% |           0      0.00%    100.00% |           0      0.00%    100.00% |           0      0.00%    100.00% |           0      0.00%    100.00%
system.ruby.L1Cache_Controller.MR.Load::total           21                      
system.ruby.L1Cache_Controller.MR.Ifetch |        5070    100.00%    100.00% |           0      0.00%    100.00% |           0      0.00%    100.00% |           0      0.00%    100.00% |           0      0.00%    100.00% |           0      0.00%    100.00% |           0      0.00%    100.00%
system.ruby.L1Cache_Controller.MR.Ifetch::total         5070                      
system.ruby.L1Cache_Controller.MR.Store  |           1    100.00%    100.00% |           0      0.00%    100.00% |           0      0.00%    100.00% |           0      0.00%    100.00% |           0      0.00%    100.00% |           0      0.00%    100.00% |           0      0.00%    100.00%
system.ruby.L1Cache_Controller.MR.Store::total            1                      
system.ruby.L1Cache_Controller.MMR.Load  |         432    100.00%    100.00% |           0      0.00%    100.00% |           0      0.00%    100.00% |           0      0.00%    100.00% |           0      0.00%    100.00% |           0      0.00%    100.00% |           0      0.00%    100.00%
system.ruby.L1Cache_Controller.MMR.Load::total          432                      
system.ruby.L1Cache_Controller.MMR.Store |          21    100.00%    100.00% |           0      0.00%    100.00% |           0      0.00%    100.00% |           0      0.00%    100.00% |           0      0.00%    100.00% |           0      0.00%    100.00% |           0      0.00%    100.00%
system.ruby.L1Cache_Controller.MMR.Store::total           21                      
system.ruby.L1Cache_Controller.IM.L1_to_L2 |           0      0.00%      0.00% |           0      0.00%      0.00% |           0      0.00%      0.00% |           0      0.00%      0.00% |           0      0.00%      0.00% |           0      0.00%      0.00% |       22556    100.00%    100.00%
system.ruby.L1Cache_Controller.IM.L1_to_L2::total        22556                      
system.ruby.L1Cache_Controller.IM.Ack    |        4829     60.53%     60.53% |          29      0.36%     60.89% |          37      0.46%     61.36% |          36      0.45%     61.81% |          40      0.50%     62.31% |           0      0.00%     62.31% |        3007     37.69%    100.00%
system.ruby.L1Cache_Controller.IM.Ack::total         7978                      
system.ruby.L1Cache_Controller.IM.Data   |           1     16.67%     16.67% |           0      0.00%     16.67% |           0      0.00%     16.67% |           0      0.00%     16.67% |           0      0.00%     16.67% |           0      0.00%     16.67% |           5     83.33%    100.00%
system.ruby.L1Cache_Controller.IM.Data::total            6                      
system.ruby.L1Cache_Controller.IM.Exclusive_Data |         805     56.45%     56.45% |           8      0.56%     57.01% |          15      1.05%     58.06% |          11      0.77%     58.84% |          16      1.12%     59.96% |           0      0.00%     59.96% |         571     40.04%    100.00%
system.ruby.L1Cache_Controller.IM.Exclusive_Data::total         1426                      
system.ruby.L1Cache_Controller.SM.Ack    |           6     14.63%     14.63% |           9     21.95%     36.59% |           7     17.07%     53.66% |          14     34.15%     87.80% |           5     12.20%    100.00% |           0      0.00%    100.00% |           0      0.00%    100.00%
system.ruby.L1Cache_Controller.SM.Ack::total           41                      
system.ruby.L1Cache_Controller.SM.Data   |           2     14.29%     14.29% |           2     14.29%     28.57% |           4     28.57%     57.14% |           4     28.57%     85.71% |           2     14.29%    100.00% |           0      0.00%    100.00% |           0      0.00%    100.00%
system.ruby.L1Cache_Controller.SM.Data::total           14                      
system.ruby.L1Cache_Controller.OM.Ack    |           0      0.00%      0.00% |          78     39.39%     39.39% |          18      9.09%     48.48% |          60     30.30%     78.79% |          42     21.21%    100.00% |           0      0.00%    100.00% |           0      0.00%    100.00%
system.ruby.L1Cache_Controller.OM.Ack::total          198                      
system.ruby.L1Cache_Controller.OM.All_acks_no_sharers |           0      0.00%      0.00% |          13     39.39%     39.39% |           3      9.09%     48.48% |          10     30.30%     78.79% |           7     21.21%    100.00% |           0      0.00%    100.00% |           0      0.00%    100.00%
system.ruby.L1Cache_Controller.OM.All_acks_no_sharers::total           33                      
system.ruby.L1Cache_Controller.ISM.L1_to_L2 |           0      0.00%      0.00% |           0      0.00%      0.00% |           0      0.00%      0.00% |           0      0.00%      0.00% |           0      0.00%      0.00% |           0      0.00%      0.00% |          19    100.00%    100.00%
system.ruby.L1Cache_Controller.ISM.L1_to_L2::total           19                      
system.ruby.L1Cache_Controller.ISM.Ack   |           6     13.33%     13.33% |           1      2.22%     15.56% |          13     28.89%     44.44% |           6     13.33%     57.78% |           5     11.11%     68.89% |           0      0.00%     68.89% |          14     31.11%    100.00%
system.ruby.L1Cache_Controller.ISM.Ack::total           45                      
system.ruby.L1Cache_Controller.ISM.All_acks_no_sharers |           3     15.00%     15.00% |           2     10.00%     25.00% |           4     20.00%     45.00% |           4     20.00%     65.00% |           2     10.00%     75.00% |           0      0.00%     75.00% |           5     25.00%    100.00%
system.ruby.L1Cache_Controller.ISM.All_acks_no_sharers::total           20                      
system.ruby.L1Cache_Controller.M_W.Load  |           0      0.00%      0.00% |           1      8.33%      8.33% |           0      0.00%      8.33% |           3     25.00%     33.33% |           8     66.67%    100.00% |           0      0.00%    100.00% |           0      0.00%    100.00%
system.ruby.L1Cache_Controller.M_W.Load::total           12                      
system.ruby.L1Cache_Controller.M_W.L1_to_L2 |           0      0.00%      0.00% |           0      0.00%      0.00% |           0      0.00%      0.00% |           0      0.00%      0.00% |           0      0.00%      0.00% |           0      0.00%      0.00% |         548    100.00%    100.00%
system.ruby.L1Cache_Controller.M_W.L1_to_L2::total          548                      
system.ruby.L1Cache_Controller.M_W.Ack   |          21      3.34%      3.34% |          27      4.30%      7.64% |           8      1.27%      8.92% |          15      2.39%     11.31% |          22      3.50%     14.81% |           0      0.00%     14.81% |         535     85.19%    100.00%
system.ruby.L1Cache_Controller.M_W.Ack::total          628                      
system.ruby.L1Cache_Controller.M_W.All_acks_no_sharers |         663     39.72%     39.72% |         114      6.83%     46.55% |         112      6.71%     53.27% |         107      6.41%     59.68% |         111      6.65%     66.33% |           0      0.00%     66.33% |         562     33.67%    100.00%
system.ruby.L1Cache_Controller.M_W.All_acks_no_sharers::total         1669                      
system.ruby.L1Cache_Controller.MM_W.Store |           1      4.76%      4.76% |           3     14.29%     19.05% |           7     33.33%     52.38% |           2      9.52%     61.90% |           8     38.10%    100.00% |           0      0.00%    100.00% |           0      0.00%    100.00%
system.ruby.L1Cache_Controller.MM_W.Store::total           21                      
system.ruby.L1Cache_Controller.MM_W.L1_to_L2 |           0      0.00%      0.00% |           0      0.00%      0.00% |           0      0.00%      0.00% |           0      0.00%      0.00% |           0      0.00%      0.00% |           0      0.00%      0.00% |         194    100.00%    100.00%
system.ruby.L1Cache_Controller.MM_W.L1_to_L2::total          194                      
system.ruby.L1Cache_Controller.MM_W.Ack  |           3      0.77%      0.77% |          14      3.59%      4.36% |          38      9.74%     14.10% |          22      5.64%     19.74% |          40     10.26%     30.00% |           0      0.00%     30.00% |         273     70.00%    100.00%
system.ruby.L1Cache_Controller.MM_W.Ack::total          390                      
system.ruby.L1Cache_Controller.MM_W.All_acks_no_sharers |         805     56.45%     56.45% |           8      0.56%     57.01% |          15      1.05%     58.06% |          11      0.77%     58.84% |          16      1.12%     59.96% |           0      0.00%     59.96% |         571     40.04%    100.00%
system.ruby.L1Cache_Controller.MM_W.All_acks_no_sharers::total         1426                      
system.ruby.L1Cache_Controller.IS.L1_to_L2 |           0      0.00%      0.00% |           0      0.00%      0.00% |           0      0.00%      0.00% |           0      0.00%      0.00% |           0      0.00%      0.00% |           0      0.00%      0.00% |       20037    100.00%    100.00%
system.ruby.L1Cache_Controller.IS.L1_to_L2::total        20037                      
system.ruby.L1Cache_Controller.IS.Other_GETS |           0      0.00%      0.00% |           4     10.53%     10.53% |           7     18.42%     28.95% |          15     39.47%     68.42% |          12     31.58%    100.00% |           0      0.00%    100.00% |           0      0.00%    100.00%
system.ruby.L1Cache_Controller.IS.Other_GETS::total           38                      
system.ruby.L1Cache_Controller.IS.Ack    |        3949     43.22%     43.22% |         676      7.40%     50.62% |         731      8.00%     58.63% |         666      7.29%     65.92% |         669      7.32%     73.24% |           0      0.00%     73.24% |        2445     26.76%    100.00%
system.ruby.L1Cache_Controller.IS.Ack::total         9136                      
system.ruby.L1Cache_Controller.IS.Shared_Ack |           0      0.00%      0.00% |           0      0.00%      0.00% |           1      9.09%      9.09% |           0      0.00%      9.09% |           0      0.00%      9.09% |           0      0.00%      9.09% |          10     90.91%    100.00%
system.ruby.L1Cache_Controller.IS.Shared_Ack::total           11                      
system.ruby.L1Cache_Controller.IS.Shared_Data |           2      1.71%      1.71% |          17     14.53%     16.24% |          29     24.79%     41.03% |          25     21.37%     62.39% |          29     24.79%     87.18% |           0      0.00%     87.18% |          15     12.82%    100.00%
system.ruby.L1Cache_Controller.IS.Shared_Data::total          117                      
system.ruby.L1Cache_Controller.IS.Exclusive_Data |         663     39.72%     39.72% |         114      6.83%     46.55% |         112      6.71%     53.27% |         107      6.41%     59.68% |         111      6.65%     66.33% |           0      0.00%     66.33% |         562     33.67%    100.00%
system.ruby.L1Cache_Controller.IS.Exclusive_Data::total         1669                      
system.ruby.L1Cache_Controller.SS.Load   |           0      0.00%      0.00% |           8     36.36%     36.36% |           0      0.00%     36.36% |          11     50.00%     86.36% |           3     13.64%    100.00% |           0      0.00%    100.00% |           0      0.00%    100.00%
system.ruby.L1Cache_Controller.SS.Load::total           22                      
system.ruby.L1Cache_Controller.SS.L1_to_L2 |           0      0.00%      0.00% |           0      0.00%      0.00% |           0      0.00%      0.00% |           0      0.00%      0.00% |           0      0.00%      0.00% |           0      0.00%      0.00% |          28    100.00%    100.00%
system.ruby.L1Cache_Controller.SS.L1_to_L2::total           28                      
system.ruby.L1Cache_Controller.SS.Ack    |           4      2.72%      2.72% |          24     16.33%     19.05% |          37     25.17%     44.22% |          23     15.65%     59.86% |          38     25.85%     85.71% |           0      0.00%     85.71% |          21     14.29%    100.00%
system.ruby.L1Cache_Controller.SS.Ack::total          147                      
system.ruby.L1Cache_Controller.SS.Shared_Ack |           3     18.75%     18.75% |           0      0.00%     18.75% |           2     12.50%     31.25% |           2     12.50%     43.75% |           3     18.75%     62.50% |           0      0.00%     62.50% |           6     37.50%    100.00%
system.ruby.L1Cache_Controller.SS.Shared_Ack::total           16                      
system.ruby.L1Cache_Controller.SS.All_acks |           2      1.71%      1.71% |          17     14.53%     16.24% |          29     24.79%     41.03% |          25     21.37%     62.39% |          29     24.79%     87.18% |           0      0.00%     87.18% |          15     12.82%    100.00%
system.ruby.L1Cache_Controller.SS.All_acks::total          117                      
system.ruby.L1Cache_Controller.MI.Writeback_Ack |           0      0.00%      0.00% |           0      0.00%      0.00% |           0      0.00%      0.00% |           0      0.00%      0.00% |           0      0.00%      0.00% |           0      0.00%      0.00% |        1065    100.00%    100.00%
system.ruby.L1Cache_Controller.MI.Writeback_Ack::total         1065                      
system.ruby.L1Cache_Controller.IT.Complete_L2_to_L1 |          44    100.00%    100.00% |           0      0.00%    100.00% |           0      0.00%    100.00% |           0      0.00%    100.00% |           0      0.00%    100.00% |           0      0.00%    100.00% |           0      0.00%    100.00%
system.ruby.L1Cache_Controller.IT.Complete_L2_to_L1::total           44                      
system.ruby.L1Cache_Controller.MT.Complete_L2_to_L1 |        5092    100.00%    100.00% |           0      0.00%    100.00% |           0      0.00%    100.00% |           0      0.00%    100.00% |           0      0.00%    100.00% |           0      0.00%    100.00% |           0      0.00%    100.00%
system.ruby.L1Cache_Controller.MT.Complete_L2_to_L1::total         5092                      
system.ruby.L1Cache_Controller.MMT.Complete_L2_to_L1 |         453    100.00%    100.00% |           0      0.00%    100.00% |           0      0.00%    100.00% |           0      0.00%    100.00% |           0      0.00%    100.00% |           0      0.00%    100.00% |           0      0.00%    100.00%
system.ruby.L1Cache_Controller.MMT.Complete_L2_to_L1::total          453                      
system.ruby.Directory_Controller.GETX            1481      0.00%      0.00%
system.ruby.Directory_Controller.GETS            1867      0.00%      0.00%
system.ruby.Directory_Controller.PUT             1068      0.00%      0.00%
system.ruby.Directory_Controller.UnblockS          117      0.00%      0.00%
system.ruby.Directory_Controller.UnblockM         3148      0.00%      0.00%
system.ruby.Directory_Controller.Writeback_Exclusive_Clean          132      0.00%      0.00%
system.ruby.Directory_Controller.Writeback_Exclusive_Dirty          933      0.00%      0.00%
system.ruby.Directory_Controller.Memory_Data         2397      0.00%      0.00%
system.ruby.Directory_Controller.Memory_Ack          933      0.00%      0.00%
system.ruby.Directory_Controller.All_Unblocks           24      0.00%      0.00%
system.ruby.Directory_Controller.NX.GETX           53      0.00%      0.00%
system.ruby.Directory_Controller.NX.GETS           17      0.00%      0.00%
system.ruby.Directory_Controller.NO.GETX          202      0.00%      0.00%
system.ruby.Directory_Controller.NO.GETS          563      0.00%      0.00%
system.ruby.Directory_Controller.NO.PUT          1065      0.00%      0.00%
system.ruby.Directory_Controller.E.GETX          1224      0.00%      0.00%
system.ruby.Directory_Controller.E.GETS          1173      0.00%      0.00%
system.ruby.Directory_Controller.NO_B.GETS           24      0.00%      0.00%
system.ruby.Directory_Controller.NO_B.PUT            3      0.00%      0.00%
system.ruby.Directory_Controller.NO_B.UnblockS           65      0.00%      0.00%
system.ruby.Directory_Controller.NO_B.UnblockM         3143      0.00%      0.00%
system.ruby.Directory_Controller.NO_B_S.GETS            9      0.00%      0.00%
system.ruby.Directory_Controller.NO_B_S.UnblockS           19      0.00%      0.00%
system.ruby.Directory_Controller.NO_B_S.UnblockM            5      0.00%      0.00%
system.ruby.Directory_Controller.NO_B_S_W.GETS            1      0.00%      0.00%
system.ruby.Directory_Controller.NO_B_S_W.UnblockS           33      0.00%      0.00%
system.ruby.Directory_Controller.NO_B_S_W.All_Unblocks           24      0.00%      0.00%
system.ruby.Directory_Controller.NO_B_W.GETX            2      0.00%      0.00%
system.ruby.Directory_Controller.NO_B_W.GETS           80      0.00%      0.00%
system.ruby.Directory_Controller.NO_B_W.Memory_Data         2397      0.00%      0.00%
system.ruby.Directory_Controller.WB.Writeback_Exclusive_Clean          132      0.00%      0.00%
system.ruby.Directory_Controller.WB.Writeback_Exclusive_Dirty          933      0.00%      0.00%
system.ruby.Directory_Controller.WB_E_W.Memory_Ack          933      0.00%      0.00%

---------- End Simulation Statistics   ----------
