
---------- Begin Simulation Statistics ----------
sim_seconds                                  0.013297                       # Number of seconds simulated
sim_ticks                                 13297033500                       # Number of ticks simulated
final_tick                                13297033500                       # Number of ticks from beginning of simulation (restored from checkpoints and never reset)
sim_freq                                 1000000000000                       # Frequency of simulated ticks
host_inst_rate                                  85465                       # Simulator instruction rate (inst/s)
host_op_rate                                   163275                       # Simulator op (including micro ops) rate (op/s)
host_tick_rate                              229103142                       # Simulator tick rate (ticks/s)
host_mem_usage                                2396156                       # Number of bytes of host memory used
host_seconds                                    58.04                       # Real time elapsed on the host
sim_insts                                     4960342                       # Number of instructions simulated
sim_ops                                       9476372                       # Number of ops (including micro ops) simulated
system.voltage_domain.voltage                       1                       # Voltage in Volts
system.clk_domain.clock                          1000                       # Clock period in ticks
system.mem_ctrls.bytes_read::gpu.shader_cores0.data        34944                       # Number of bytes read from this memory
system.mem_ctrls.bytes_read::gpu.shader_cores0.inst          288                       # Number of bytes read from this memory
system.mem_ctrls.bytes_read::gpu.shader_cores1.data        35584                       # Number of bytes read from this memory
system.mem_ctrls.bytes_read::gpu.shader_cores1.inst          312                       # Number of bytes read from this memory
system.mem_ctrls.bytes_read::gpu.shader_cores2.data        34944                       # Number of bytes read from this memory
system.mem_ctrls.bytes_read::gpu.shader_cores2.inst          288                       # Number of bytes read from this memory
system.mem_ctrls.bytes_read::gpu.shader_cores3.data        34944                       # Number of bytes read from this memory
system.mem_ctrls.bytes_read::gpu.shader_cores3.inst          288                       # Number of bytes read from this memory
system.mem_ctrls.bytes_read::gpu.ce             73052                       # Number of bytes read from this memory
system.mem_ctrls.bytes_read::cpu.inst        53320888                       # Number of bytes read from this memory
system.mem_ctrls.bytes_read::cpu.data         7972111                       # Number of bytes read from this memory
system.mem_ctrls.bytes_read::total           61507643                       # Number of bytes read from this memory
system.mem_ctrls.bytes_inst_read::gpu.shader_cores0.inst          288                       # Number of instructions bytes read from this memory
system.mem_ctrls.bytes_inst_read::gpu.shader_cores1.inst          312                       # Number of instructions bytes read from this memory
system.mem_ctrls.bytes_inst_read::gpu.shader_cores2.inst          288                       # Number of instructions bytes read from this memory
system.mem_ctrls.bytes_inst_read::gpu.shader_cores3.inst          288                       # Number of instructions bytes read from this memory
system.mem_ctrls.bytes_inst_read::cpu.inst     53320888                       # Number of instructions bytes read from this memory
system.mem_ctrls.bytes_inst_read::total      53322064                       # Number of instructions bytes read from this memory
system.mem_ctrls.bytes_written::gpu.shader_cores0.data        12544                       # Number of bytes written to this memory
system.mem_ctrls.bytes_written::gpu.shader_cores1.data        12672                       # Number of bytes written to this memory
system.mem_ctrls.bytes_written::gpu.shader_cores2.data        12544                       # Number of bytes written to this memory
system.mem_ctrls.bytes_written::gpu.shader_cores3.data        12544                       # Number of bytes written to this memory
system.mem_ctrls.bytes_written::gpu.ce          73052                       # Number of bytes written to this memory
system.mem_ctrls.bytes_written::cpu.data      4969927                       # Number of bytes written to this memory
system.mem_ctrls.bytes_written::total         5093283                       # Number of bytes written to this memory
system.mem_ctrls.num_reads::gpu.shader_cores0.data          422                       # Number of read requests responded to by this memory
system.mem_ctrls.num_reads::gpu.shader_cores0.inst           12                       # Number of read requests responded to by this memory
system.mem_ctrls.num_reads::gpu.shader_cores1.data          427                       # Number of read requests responded to by this memory
system.mem_ctrls.num_reads::gpu.shader_cores1.inst           13                       # Number of read requests responded to by this memory
system.mem_ctrls.num_reads::gpu.shader_cores2.data          422                       # Number of read requests responded to by this memory
system.mem_ctrls.num_reads::gpu.shader_cores2.inst           12                       # Number of read requests responded to by this memory
system.mem_ctrls.num_reads::gpu.shader_cores3.data          422                       # Number of read requests responded to by this memory
system.mem_ctrls.num_reads::gpu.shader_cores3.inst           12                       # Number of read requests responded to by this memory
system.mem_ctrls.num_reads::gpu.ce                577                       # Number of read requests responded to by this memory
system.mem_ctrls.num_reads::cpu.inst          6665111                       # Number of read requests responded to by this memory
system.mem_ctrls.num_reads::cpu.data          1297860                       # Number of read requests responded to by this memory
system.mem_ctrls.num_reads::total             7965290                       # Number of read requests responded to by this memory
system.mem_ctrls.num_writes::gpu.shader_cores0.data          314                       # Number of write requests responded to by this memory
system.mem_ctrls.num_writes::gpu.shader_cores1.data          316                       # Number of write requests responded to by this memory
system.mem_ctrls.num_writes::gpu.shader_cores2.data          314                       # Number of write requests responded to by this memory
system.mem_ctrls.num_writes::gpu.shader_cores3.data          314                       # Number of write requests responded to by this memory
system.mem_ctrls.num_writes::gpu.ce               576                       # Number of write requests responded to by this memory
system.mem_ctrls.num_writes::cpu.data          788149                       # Number of write requests responded to by this memory
system.mem_ctrls.num_writes::total             789983                       # Number of write requests responded to by this memory
system.mem_ctrls.bw_read::gpu.shader_cores0.data      2627955                       # Total read bandwidth from this memory (bytes/s)
system.mem_ctrls.bw_read::gpu.shader_cores0.inst        21659                       # Total read bandwidth from this memory (bytes/s)
system.mem_ctrls.bw_read::gpu.shader_cores1.data      2676086                       # Total read bandwidth from this memory (bytes/s)
system.mem_ctrls.bw_read::gpu.shader_cores1.inst        23464                       # Total read bandwidth from this memory (bytes/s)
system.mem_ctrls.bw_read::gpu.shader_cores2.data      2627955                       # Total read bandwidth from this memory (bytes/s)
system.mem_ctrls.bw_read::gpu.shader_cores2.inst        21659                       # Total read bandwidth from this memory (bytes/s)
system.mem_ctrls.bw_read::gpu.shader_cores3.data      2627955                       # Total read bandwidth from this memory (bytes/s)
system.mem_ctrls.bw_read::gpu.shader_cores3.inst        21659                       # Total read bandwidth from this memory (bytes/s)
system.mem_ctrls.bw_read::gpu.ce              5493857                       # Total read bandwidth from this memory (bytes/s)
system.mem_ctrls.bw_read::cpu.inst         4009983731                       # Total read bandwidth from this memory (bytes/s)
system.mem_ctrls.bw_read::cpu.data          599540567                       # Total read bandwidth from this memory (bytes/s)
system.mem_ctrls.bw_read::total            4625666544                       # Total read bandwidth from this memory (bytes/s)
system.mem_ctrls.bw_inst_read::gpu.shader_cores0.inst        21659                       # Instruction read bandwidth from this memory (bytes/s)
system.mem_ctrls.bw_inst_read::gpu.shader_cores1.inst        23464                       # Instruction read bandwidth from this memory (bytes/s)
system.mem_ctrls.bw_inst_read::gpu.shader_cores2.inst        21659                       # Instruction read bandwidth from this memory (bytes/s)
system.mem_ctrls.bw_inst_read::gpu.shader_cores3.inst        21659                       # Instruction read bandwidth from this memory (bytes/s)
system.mem_ctrls.bw_inst_read::cpu.inst    4009983731                       # Instruction read bandwidth from this memory (bytes/s)
system.mem_ctrls.bw_inst_read::total       4010072171                       # Instruction read bandwidth from this memory (bytes/s)
system.mem_ctrls.bw_write::gpu.shader_cores0.data       943368                       # Write bandwidth from this memory (bytes/s)
system.mem_ctrls.bw_write::gpu.shader_cores1.data       952995                       # Write bandwidth from this memory (bytes/s)
system.mem_ctrls.bw_write::gpu.shader_cores2.data       943368                       # Write bandwidth from this memory (bytes/s)
system.mem_ctrls.bw_write::gpu.shader_cores3.data       943368                       # Write bandwidth from this memory (bytes/s)
system.mem_ctrls.bw_write::gpu.ce             5493857                       # Write bandwidth from this memory (bytes/s)
system.mem_ctrls.bw_write::cpu.data         373762088                       # Write bandwidth from this memory (bytes/s)
system.mem_ctrls.bw_write::total            383039044                       # Write bandwidth from this memory (bytes/s)
system.mem_ctrls.bw_total::gpu.shader_cores0.data      3571323                       # Total bandwidth to/from this memory (bytes/s)
system.mem_ctrls.bw_total::gpu.shader_cores0.inst        21659                       # Total bandwidth to/from this memory (bytes/s)
system.mem_ctrls.bw_total::gpu.shader_cores1.data      3629080                       # Total bandwidth to/from this memory (bytes/s)
system.mem_ctrls.bw_total::gpu.shader_cores1.inst        23464                       # Total bandwidth to/from this memory (bytes/s)
system.mem_ctrls.bw_total::gpu.shader_cores2.data      3571323                       # Total bandwidth to/from this memory (bytes/s)
system.mem_ctrls.bw_total::gpu.shader_cores2.inst        21659                       # Total bandwidth to/from this memory (bytes/s)
system.mem_ctrls.bw_total::gpu.shader_cores3.data      3571323                       # Total bandwidth to/from this memory (bytes/s)
system.mem_ctrls.bw_total::gpu.shader_cores3.inst        21659                       # Total bandwidth to/from this memory (bytes/s)
system.mem_ctrls.bw_total::gpu.ce            10987714                       # Total bandwidth to/from this memory (bytes/s)
system.mem_ctrls.bw_total::cpu.inst        4009983731                       # Total bandwidth to/from this memory (bytes/s)
system.mem_ctrls.bw_total::cpu.data         973302654                       # Total bandwidth to/from this memory (bytes/s)
system.mem_ctrls.bw_total::total           5008705588                       # Total bandwidth to/from this memory (bytes/s)
system.ruby_clk_domain.clock                      500                       # Clock period in ticks
system.ruby.outstanding_req_hist::bucket_size            8                      
system.ruby.outstanding_req_hist::max_bucket           79                      
system.ruby.outstanding_req_hist::samples      8755274                      
system.ruby.outstanding_req_hist::mean       1.008637                      
system.ruby.outstanding_req_hist::gmean      1.000849                      
system.ruby.outstanding_req_hist::stdev      0.660080                      
system.ruby.outstanding_req_hist         |     8753401     99.98%     99.98% |         321      0.00%     99.98% |         229      0.00%     99.98% |         339      0.00%     99.99% |          89      0.00%     99.99% |          37      0.00%     99.99% |          61      0.00%     99.99% |          46      0.00%     99.99% |         751      0.01%    100.00% |           0      0.00%    100.00%
system.ruby.outstanding_req_hist::total       8755274                      
system.ruby.latency_hist::bucket_size             512                      
system.ruby.latency_hist::max_bucket             5119                      
system.ruby.latency_hist::samples             8755273                      
system.ruby.latency_hist::mean               2.198278                      
system.ruby.latency_hist::gmean              2.005620                      
system.ruby.latency_hist::stdev             15.118723                      
system.ruby.latency_hist                 |     8754247     99.99%     99.99% |         276      0.00%     99.99% |         404      0.00%    100.00% |         329      0.00%    100.00% |          15      0.00%    100.00% |           2      0.00%    100.00% |           0      0.00%    100.00% |           0      0.00%    100.00% |           0      0.00%    100.00% |           0      0.00%    100.00%
system.ruby.latency_hist::total               8755273                      
system.ruby.hit_latency_hist::bucket_size            2                      
system.ruby.hit_latency_hist::max_bucket           19                      
system.ruby.hit_latency_hist::samples         8752052                      
system.ruby.hit_latency_hist::mean           2.006694                      
system.ruby.hit_latency_hist::gmean          2.001992                      
system.ruby.hit_latency_hist::stdev          0.277293                      
system.ruby.hit_latency_hist             |        2405      0.03%      0.03% |     8744102     99.91%     99.94% |           0      0.00%     99.94% |           0      0.00%     99.94% |           0      0.00%     99.94% |           0      0.00%     99.94% |        5545      0.06%    100.00% |           0      0.00%    100.00% |           0      0.00%    100.00% |           0      0.00%    100.00%
system.ruby.hit_latency_hist::total           8752052                      
system.ruby.miss_latency_hist::bucket_size          512                      
system.ruby.miss_latency_hist::max_bucket         5119                      
system.ruby.miss_latency_hist::samples           3221                      
system.ruby.miss_latency_hist::mean        522.764980                      
system.ruby.miss_latency_hist::gmean       274.793701                      
system.ruby.miss_latency_hist::stdev       591.710676                      
system.ruby.miss_latency_hist            |        2195     68.15%     68.15% |         276      8.57%     76.72% |         404     12.54%     89.26% |         329     10.21%     99.47% |          15      0.47%     99.94% |           2      0.06%    100.00% |           0      0.00%    100.00% |           0      0.00%    100.00% |           0      0.00%    100.00% |           0      0.00%    100.00%
system.ruby.miss_latency_hist::total             3221                      
system.ruby.L1Cache.incomplete_times               21                      
system.ruby.l1_cntrl_ce.L1Dcache.demand_hits            0                       # Number of cache demand hits
system.ruby.l1_cntrl_ce.L1Dcache.demand_misses         1153                       # Number of cache demand misses
system.ruby.l1_cntrl_ce.L1Dcache.demand_accesses         1153                       # Number of cache demand accesses
system.ruby.l1_cntrl_ce.L1Icache.demand_hits            0                       # Number of cache demand hits
system.ruby.l1_cntrl_ce.L1Icache.demand_misses            0                       # Number of cache demand misses
system.ruby.l1_cntrl_ce.L1Icache.demand_accesses            0                       # Number of cache demand accesses
system.ruby.l1_cntrl_ce.L2cache.demand_hits            0                       # Number of cache demand hits
system.ruby.l1_cntrl_ce.L2cache.demand_misses         1153                       # Number of cache demand misses
system.ruby.l1_cntrl_ce.L2cache.demand_accesses         1153                       # Number of cache demand accesses
system.ruby.l1_cntrl_ce.fully_busy_cycles          621                       # cycles for which number of transistions == max transitions
system.ruby.l1_cntrl0.L1Dcache.demand_hits      2084521                       # Number of cache demand hits
system.ruby.l1_cntrl0.L1Dcache.demand_misses         1488                       # Number of cache demand misses
system.ruby.l1_cntrl0.L1Dcache.demand_accesses      2086009                       # Number of cache demand accesses
system.ruby.l1_cntrl0.L1Icache.demand_hits      6659581                       # Number of cache demand hits
system.ruby.l1_cntrl0.L1Icache.demand_misses         5530                       # Number of cache demand misses
system.ruby.l1_cntrl0.L1Icache.demand_accesses      6665111                       # Number of cache demand accesses
system.ruby.l1_cntrl0.L2cache.demand_hits         5545                       # Number of cache demand hits
system.ruby.l1_cntrl0.L2cache.demand_misses         1473                       # Number of cache demand misses
system.ruby.l1_cntrl0.L2cache.demand_accesses         7018                       # Number of cache demand accesses
system.ruby.network.routers0.percent_links_utilized     0.042679                      
system.ruby.network.routers0.msg_count.Request_Control::2         1473                      
system.ruby.network.routers0.msg_count.Request_Control::3            1                      
system.ruby.network.routers0.msg_count.Response_Data::4         1794                      
system.ruby.network.routers0.msg_count.Response_Control::4        10228                      
system.ruby.network.routers0.msg_count.Broadcast_Control::3         1727                      
system.ruby.network.routers0.msg_count.Unblock_Control::5         1473                      
system.ruby.network.routers0.msg_bytes.Request_Control::2        11784                      
system.ruby.network.routers0.msg_bytes.Request_Control::3            8                      
system.ruby.network.routers0.msg_bytes.Response_Data::4       243984                      
system.ruby.network.routers0.msg_bytes.Response_Control::4        81824                      
system.ruby.network.routers0.msg_bytes.Broadcast_Control::3        13816                      
system.ruby.network.routers0.msg_bytes.Unblock_Control::5        11784                      
system.ruby.dir_cntrl0.memBuffer.clk_domain.clock         2500                       # Clock period in ticks
system.ruby.dir_cntrl0.memBuffer.memReq          3326                       # Total number of memory requests
system.ruby.dir_cntrl0.memBuffer.memRead         2395                       # Number of memory reads
system.ruby.dir_cntrl0.memBuffer.memWrite          931                       # Number of memory writes
system.ruby.dir_cntrl0.memBuffer.memRefresh        12191                       # Number of memory refreshes
system.ruby.dir_cntrl0.memBuffer.memWaitCycles        27484                       # Delay stalled at the head of the bank queue
system.ruby.dir_cntrl0.memBuffer.memInputQ         7757                       # Delay in the input queue
system.ruby.dir_cntrl0.memBuffer.memBankQ        23822                       # Delay behind the head of the bank queue
system.ruby.dir_cntrl0.memBuffer.totalStalls        59063                       # Total number of stall cycles
system.ruby.dir_cntrl0.memBuffer.stallsPerReq    17.757968                       # Expected number of stall cycles per request
system.ruby.dir_cntrl0.memBuffer.memBankBusy         4847                       # memory stalls due to busy bank
system.ruby.dir_cntrl0.memBuffer.memBusBusy         8387                       # memory stalls due to busy bus
system.ruby.dir_cntrl0.memBuffer.memReadWriteBusy         1283                       # memory stalls due to read write turnaround
system.ruby.dir_cntrl0.memBuffer.memDataBusBusy         1916                       # memory stalls due to read read turnaround
system.ruby.dir_cntrl0.memBuffer.memArbWait         5610                       # memory stalls due to arbitration
system.ruby.dir_cntrl0.memBuffer.memNotOld         5441                       # memory stalls due to anti starvation
system.ruby.dir_cntrl0.memBuffer.memBankCount |          99      2.98%      2.98% |         100      3.01%      5.98% |          98      2.95%      8.93% |         104      3.13%     12.06% |          95      2.86%     14.91% |         105      3.16%     18.07% |         101      3.04%     21.11% |         104      3.13%     24.23% |         104      3.13%     27.36% |         103      3.10%     30.46% |         109      3.28%     33.73% |         101      3.04%     36.77% |          99      2.98%     39.75% |          97      2.92%     42.66% |         101      3.04%     45.70% |         100      3.01%     48.71% |         106      3.19%     51.89% |         108      3.25%     55.14% |         105      3.16%     58.30% |         110      3.31%     61.61% |         102      3.07%     64.67% |         104      3.13%     67.80% |         111      3.34%     71.14% |         115      3.46%     74.59% |         121      3.64%     78.23% |         114      3.43%     81.66% |         109      3.28%     84.94% |         106      3.19%     88.12% |          98      2.95%     91.07% |          98      2.95%     94.02% |         100      3.01%     97.02% |          99      2.98%    100.00% # Number of accesses per bank
system.ruby.dir_cntrl0.memBuffer.memBankCount::total         3326                       # Number of accesses per bank
system.ruby.dir_cntrl0.probeFilter.demand_hits            0                       # Number of cache demand hits
system.ruby.dir_cntrl0.probeFilter.demand_misses            0                       # Number of cache demand misses
system.ruby.dir_cntrl0.probeFilter.demand_accesses            0                       # Number of cache demand accesses
system.ruby.dir_cntrl0.fully_busy_cycles            2                       # cycles for which number of transistions == max transitions
system.ruby.network.routers1.percent_links_utilized     0.064350                      
system.ruby.network.routers1.msg_count.Request_Control::2         3221                      
system.ruby.network.routers1.msg_count.Request_Control::3           11                      
system.ruby.network.routers1.msg_count.Response_Data::4         2395                      
system.ruby.network.routers1.msg_count.Writeback_Data::5          931                      
system.ruby.network.routers1.msg_count.Writeback_Control::2         1063                      
system.ruby.network.routers1.msg_count.Writeback_Control::3         1063                      
system.ruby.network.routers1.msg_count.Writeback_Control::5          132                      
system.ruby.network.routers1.msg_count.Broadcast_Control::3         3200                      
system.ruby.network.routers1.msg_count.Unblock_Control::5         3221                      
system.ruby.network.routers1.msg_bytes.Request_Control::2        25768                      
system.ruby.network.routers1.msg_bytes.Request_Control::3           88                      
system.ruby.network.routers1.msg_bytes.Response_Data::4       325720                      
system.ruby.network.routers1.msg_bytes.Writeback_Data::5       126616                      
system.ruby.network.routers1.msg_bytes.Writeback_Control::2         8504                      
system.ruby.network.routers1.msg_bytes.Writeback_Control::3         8504                      
system.ruby.network.routers1.msg_bytes.Writeback_Control::5         1056                      
system.ruby.network.routers1.msg_bytes.Broadcast_Control::3        25600                      
system.ruby.network.routers1.msg_bytes.Unblock_Control::5        25768                      
system.ruby.l1_cntrl_sp00.L1Dcache.demand_hits          612                       # Number of cache demand hits
system.ruby.l1_cntrl_sp00.L1Dcache.demand_misses          124                       # Number of cache demand misses
system.ruby.l1_cntrl_sp00.L1Dcache.demand_accesses          736                       # Number of cache demand accesses
system.ruby.l1_cntrl_sp00.L1Icache.demand_hits            0                       # Number of cache demand hits
system.ruby.l1_cntrl_sp00.L1Icache.demand_misses           12                       # Number of cache demand misses
system.ruby.l1_cntrl_sp00.L1Icache.demand_accesses           12                       # Number of cache demand accesses
system.ruby.l1_cntrl_sp00.L2cache.demand_hits            0                       # Number of cache demand hits
system.ruby.l1_cntrl_sp00.L2cache.demand_misses          136                       # Number of cache demand misses
system.ruby.l1_cntrl_sp00.L2cache.demand_accesses          136                       # Number of cache demand accesses
system.ruby.network.routers2.percent_links_utilized     0.010410                      
system.ruby.network.routers2.msg_count.Request_Control::2          136                      
system.ruby.network.routers2.msg_count.Request_Control::3            3                      
system.ruby.network.routers2.msg_count.Response_Data::4          236                      
system.ruby.network.routers2.msg_count.Response_Control::4         3720                      
system.ruby.network.routers2.msg_count.Broadcast_Control::3         3067                      
system.ruby.network.routers2.msg_count.Unblock_Control::5          136                      
system.ruby.network.routers2.msg_bytes.Request_Control::2         1088                      
system.ruby.network.routers2.msg_bytes.Request_Control::3           24                      
system.ruby.network.routers2.msg_bytes.Response_Data::4        32096                      
system.ruby.network.routers2.msg_bytes.Response_Control::4        29760                      
system.ruby.network.routers2.msg_bytes.Broadcast_Control::3        24536                      
system.ruby.network.routers2.msg_bytes.Unblock_Control::5         1088                      
system.ruby.l1_cntrl_sp01.L1Dcache.demand_hits          597                       # Number of cache demand hits
system.ruby.l1_cntrl_sp01.L1Dcache.demand_misses          146                       # Number of cache demand misses
system.ruby.l1_cntrl_sp01.L1Dcache.demand_accesses          743                       # Number of cache demand accesses
system.ruby.l1_cntrl_sp01.L1Icache.demand_hits            0                       # Number of cache demand hits
system.ruby.l1_cntrl_sp01.L1Icache.demand_misses           13                       # Number of cache demand misses
system.ruby.l1_cntrl_sp01.L1Icache.demand_accesses           13                       # Number of cache demand accesses
system.ruby.l1_cntrl_sp01.L2cache.demand_hits            0                       # Number of cache demand hits
system.ruby.l1_cntrl_sp01.L2cache.demand_misses          159                       # Number of cache demand misses
system.ruby.l1_cntrl_sp01.L2cache.demand_accesses          159                       # Number of cache demand accesses
system.ruby.network.routers3.percent_links_utilized     0.010894                      
system.ruby.network.routers3.msg_count.Request_Control::2          159                      
system.ruby.network.routers3.msg_count.Request_Control::3            1                      
system.ruby.network.routers3.msg_count.Response_Data::4          260                      
system.ruby.network.routers3.msg_count.Response_Control::4         3801                      
system.ruby.network.routers3.msg_count.Broadcast_Control::3         3049                      
system.ruby.network.routers3.msg_count.Unblock_Control::5          159                      
system.ruby.network.routers3.msg_bytes.Request_Control::2         1272                      
system.ruby.network.routers3.msg_bytes.Request_Control::3            8                      
system.ruby.network.routers3.msg_bytes.Response_Data::4        35360                      
system.ruby.network.routers3.msg_bytes.Response_Control::4        30408                      
system.ruby.network.routers3.msg_bytes.Broadcast_Control::3        24392                      
system.ruby.network.routers3.msg_bytes.Unblock_Control::5         1272                      
system.ruby.l1_cntrl_sp02.L1Dcache.demand_hits          609                       # Number of cache demand hits
system.ruby.l1_cntrl_sp02.L1Dcache.demand_misses          127                       # Number of cache demand misses
system.ruby.l1_cntrl_sp02.L1Dcache.demand_accesses          736                       # Number of cache demand accesses
system.ruby.l1_cntrl_sp02.L1Icache.demand_hits            0                       # Number of cache demand hits
system.ruby.l1_cntrl_sp02.L1Icache.demand_misses           12                       # Number of cache demand misses
system.ruby.l1_cntrl_sp02.L1Icache.demand_accesses           12                       # Number of cache demand accesses
system.ruby.l1_cntrl_sp02.L2cache.demand_hits            0                       # Number of cache demand hits
system.ruby.l1_cntrl_sp02.L2cache.demand_misses          139                       # Number of cache demand misses
system.ruby.l1_cntrl_sp02.L2cache.demand_accesses          139                       # Number of cache demand accesses
system.ruby.network.routers4.percent_links_utilized     0.010375                      
system.ruby.network.routers4.msg_count.Request_Control::2          139                      
system.ruby.network.routers4.msg_count.Request_Control::3            4                      
system.ruby.network.routers4.msg_count.Response_Data::4          231                      
system.ruby.network.routers4.msg_count.Response_Control::4         3764                      
system.ruby.network.routers4.msg_count.Broadcast_Control::3         3064                      
system.ruby.network.routers4.msg_count.Unblock_Control::5          139                      
system.ruby.network.routers4.msg_bytes.Request_Control::2         1112                      
system.ruby.network.routers4.msg_bytes.Request_Control::3           32                      
system.ruby.network.routers4.msg_bytes.Response_Data::4        31416                      
system.ruby.network.routers4.msg_bytes.Response_Control::4        30112                      
system.ruby.network.routers4.msg_bytes.Broadcast_Control::3        24512                      
system.ruby.network.routers4.msg_bytes.Unblock_Control::5         1112                      
system.ruby.l1_cntrl_sp03.L1Dcache.demand_hits          587                       # Number of cache demand hits
system.ruby.l1_cntrl_sp03.L1Dcache.demand_misses          149                       # Number of cache demand misses
system.ruby.l1_cntrl_sp03.L1Dcache.demand_accesses          736                       # Number of cache demand accesses
system.ruby.l1_cntrl_sp03.L1Icache.demand_hits            0                       # Number of cache demand hits
system.ruby.l1_cntrl_sp03.L1Icache.demand_misses           12                       # Number of cache demand misses
system.ruby.l1_cntrl_sp03.L1Icache.demand_accesses           12                       # Number of cache demand accesses
system.ruby.l1_cntrl_sp03.L2cache.demand_hits            0                       # Number of cache demand hits
system.ruby.l1_cntrl_sp03.L2cache.demand_misses          161                       # Number of cache demand misses
system.ruby.l1_cntrl_sp03.L2cache.demand_accesses          161                       # Number of cache demand accesses
system.ruby.network.routers5.percent_links_utilized     0.010856                      
system.ruby.network.routers5.msg_count.Request_Control::2          161                      
system.ruby.network.routers5.msg_count.Request_Control::3            2                      
system.ruby.network.routers5.msg_count.Response_Data::4          256                      
system.ruby.network.routers5.msg_count.Response_Control::4         3826                      
system.ruby.network.routers5.msg_count.Broadcast_Control::3         3046                      
system.ruby.network.routers5.msg_count.Unblock_Control::5          161                      
system.ruby.network.routers5.msg_bytes.Request_Control::2         1288                      
system.ruby.network.routers5.msg_bytes.Request_Control::3           16                      
system.ruby.network.routers5.msg_bytes.Response_Data::4        34816                      
system.ruby.network.routers5.msg_bytes.Response_Control::4        30608                      
system.ruby.network.routers5.msg_bytes.Broadcast_Control::3        24368                      
system.ruby.network.routers5.msg_bytes.Unblock_Control::5         1288                      
system.ruby.l1_pw_cntrl.L1Dcache.demand_hits            0                       # Number of cache demand hits
system.ruby.l1_pw_cntrl.L1Dcache.demand_misses            0                       # Number of cache demand misses
system.ruby.l1_pw_cntrl.L1Dcache.demand_accesses            0                       # Number of cache demand accesses
system.ruby.l1_pw_cntrl.L1Icache.demand_hits            0                       # Number of cache demand hits
system.ruby.l1_pw_cntrl.L1Icache.demand_misses            0                       # Number of cache demand misses
system.ruby.l1_pw_cntrl.L1Icache.demand_accesses            0                       # Number of cache demand accesses
system.ruby.l1_pw_cntrl.L2cache.demand_hits            0                       # Number of cache demand hits
system.ruby.l1_pw_cntrl.L2cache.demand_misses            0                       # Number of cache demand misses
system.ruby.l1_pw_cntrl.L2cache.demand_accesses            0                       # Number of cache demand accesses
system.ruby.network.routers6.percent_links_utilized     0.006016                      
system.ruby.network.routers6.msg_count.Response_Control::4         3200                      
system.ruby.network.routers6.msg_count.Broadcast_Control::3         3200                      
system.ruby.network.routers6.msg_bytes.Response_Control::4        25600                      
system.ruby.network.routers6.msg_bytes.Broadcast_Control::3        25600                      
system.ruby.network.routers7.percent_links_utilized     0.048203                      
system.ruby.network.routers7.msg_count.Request_Control::2         1153                      
system.ruby.network.routers7.msg_count.Response_Data::4         1208                      
system.ruby.network.routers7.msg_count.Response_Control::4         8303                      
system.ruby.network.routers7.msg_count.Writeback_Data::5          931                      
system.ruby.network.routers7.msg_count.Writeback_Control::2         1063                      
system.ruby.network.routers7.msg_count.Writeback_Control::3         1063                      
system.ruby.network.routers7.msg_count.Writeback_Control::5          132                      
system.ruby.network.routers7.msg_count.Broadcast_Control::3         2047                      
system.ruby.network.routers7.msg_count.Unblock_Control::5         1153                      
system.ruby.network.routers7.msg_bytes.Request_Control::2         9224                      
system.ruby.network.routers7.msg_bytes.Response_Data::4       164288                      
system.ruby.network.routers7.msg_bytes.Response_Control::4        66424                      
system.ruby.network.routers7.msg_bytes.Writeback_Data::5       126616                      
system.ruby.network.routers7.msg_bytes.Writeback_Control::2         8504                      
system.ruby.network.routers7.msg_bytes.Writeback_Control::3         8504                      
system.ruby.network.routers7.msg_bytes.Writeback_Control::5         1056                      
system.ruby.network.routers7.msg_bytes.Broadcast_Control::3        16376                      
system.ruby.network.routers7.msg_bytes.Unblock_Control::5         9224                      
system.ruby.network.routers8.percent_links_utilized     0.027373                      
system.ruby.network.routers8.msg_count.Request_Control::2         3221                      
system.ruby.network.routers8.msg_count.Request_Control::3           11                      
system.ruby.network.routers8.msg_count.Response_Data::4         3195                      
system.ruby.network.routers8.msg_count.Response_Control::4        18421                      
system.ruby.network.routers8.msg_count.Writeback_Data::5          931                      
system.ruby.network.routers8.msg_count.Writeback_Control::2         1063                      
system.ruby.network.routers8.msg_count.Writeback_Control::3         1063                      
system.ruby.network.routers8.msg_count.Writeback_Control::5          132                      
system.ruby.network.routers8.msg_count.Broadcast_Control::3        19200                      
system.ruby.network.routers8.msg_count.Unblock_Control::5         3221                      
system.ruby.network.routers8.msg_bytes.Request_Control::2        25768                      
system.ruby.network.routers8.msg_bytes.Request_Control::3           88                      
system.ruby.network.routers8.msg_bytes.Response_Data::4       434520                      
system.ruby.network.routers8.msg_bytes.Response_Control::4       147368                      
system.ruby.network.routers8.msg_bytes.Writeback_Data::5       126616                      
system.ruby.network.routers8.msg_bytes.Writeback_Control::2         8504                      
system.ruby.network.routers8.msg_bytes.Writeback_Control::3         8504                      
system.ruby.network.routers8.msg_bytes.Writeback_Control::5         1056                      
system.ruby.network.routers8.msg_bytes.Broadcast_Control::3       153600                      
system.ruby.network.routers8.msg_bytes.Unblock_Control::5        25768                      
system.ruby.network.msg_count.Request_Control         9696                      
system.ruby.network.msg_count.Response_Data         9575                      
system.ruby.network.msg_count.Response_Control        55263                      
system.ruby.network.msg_count.Writeback_Data         2793                      
system.ruby.network.msg_count.Writeback_Control         6774                      
system.ruby.network.msg_count.Broadcast_Control        41600                      
system.ruby.network.msg_count.Unblock_Control         9663                      
system.ruby.network.msg_byte.Request_Control        77568                      
system.ruby.network.msg_byte.Response_Data      1302200                      
system.ruby.network.msg_byte.Response_Control       442104                      
system.ruby.network.msg_byte.Writeback_Data       379848                      
system.ruby.network.msg_byte.Writeback_Control        54192                      
system.ruby.network.msg_byte.Broadcast_Control       332800                      
system.ruby.network.msg_byte.Unblock_Control        77304                      
system.ruby.memctrl_clk_domain.clock             1500                       # Clock period in ticks
system.cpu_voltage_domain.voltage                   1                       # Voltage in Volts
system.gpu.voltage_domain.voltage                   1                       # Voltage in Volts
system.gpu.clk_domain.clock                      1429                       # Clock period in ticks
system.gpu.shader_mmu.numPagefaults                 0                       # Number of Pagefaults
system.gpu.shader_mmu.numPagewalks                168                       # Number of Pagewalks
system.gpu.shader_mmu.totalRequests               168                       # Total number of requests
system.gpu.shader_mmu.retryFailures                 0                       # Times the retry walk after a pagefault failed
system.gpu.shader_mmu.l2hits                        0                       # Hits in the shared L2
system.gpu.shader_mmu.prefetchHits                  0                       # Number of prefetch hits
system.gpu.shader_mmu.numPrefetches                 0                       # Number of prefetchs
system.gpu.shader_mmu.prefetchFaults                0                       # Number of faults caused by prefetches
system.gpu.shader_mmu.pagefaultLatency::samples            0                       # Latency to complete the pagefault
system.gpu.shader_mmu.pagefaultLatency::mean          nan                       # Latency to complete the pagefault
system.gpu.shader_mmu.pagefaultLatency::gmean          nan                       # Latency to complete the pagefault
system.gpu.shader_mmu.pagefaultLatency::stdev          nan                       # Latency to complete the pagefault
system.gpu.shader_mmu.pagefaultLatency::0            0                       # Latency to complete the pagefault
system.gpu.shader_mmu.pagefaultLatency::1            0                       # Latency to complete the pagefault
system.gpu.shader_mmu.pagefaultLatency::2            0                       # Latency to complete the pagefault
system.gpu.shader_mmu.pagefaultLatency::3            0                       # Latency to complete the pagefault
system.gpu.shader_mmu.pagefaultLatency::4            0                       # Latency to complete the pagefault
system.gpu.shader_mmu.pagefaultLatency::5            0                       # Latency to complete the pagefault
system.gpu.shader_mmu.pagefaultLatency::6            0                       # Latency to complete the pagefault
system.gpu.shader_mmu.pagefaultLatency::7            0                       # Latency to complete the pagefault
system.gpu.shader_mmu.pagefaultLatency::8            0                       # Latency to complete the pagefault
system.gpu.shader_mmu.pagefaultLatency::9            0                       # Latency to complete the pagefault
system.gpu.shader_mmu.pagefaultLatency::10            0                       # Latency to complete the pagefault
system.gpu.shader_mmu.pagefaultLatency::11            0                       # Latency to complete the pagefault
system.gpu.shader_mmu.pagefaultLatency::12            0                       # Latency to complete the pagefault
system.gpu.shader_mmu.pagefaultLatency::13            0                       # Latency to complete the pagefault
system.gpu.shader_mmu.pagefaultLatency::14            0                       # Latency to complete the pagefault
system.gpu.shader_mmu.pagefaultLatency::15            0                       # Latency to complete the pagefault
system.gpu.shader_mmu.pagefaultLatency::16            0                       # Latency to complete the pagefault
system.gpu.shader_mmu.pagefaultLatency::17            0                       # Latency to complete the pagefault
system.gpu.shader_mmu.pagefaultLatency::18            0                       # Latency to complete the pagefault
system.gpu.shader_mmu.pagefaultLatency::19            0                       # Latency to complete the pagefault
system.gpu.shader_mmu.pagefaultLatency::20            0                       # Latency to complete the pagefault
system.gpu.shader_mmu.pagefaultLatency::21            0                       # Latency to complete the pagefault
system.gpu.shader_mmu.pagefaultLatency::22            0                       # Latency to complete the pagefault
system.gpu.shader_mmu.pagefaultLatency::23            0                       # Latency to complete the pagefault
system.gpu.shader_mmu.pagefaultLatency::24            0                       # Latency to complete the pagefault
system.gpu.shader_mmu.pagefaultLatency::25            0                       # Latency to complete the pagefault
system.gpu.shader_mmu.pagefaultLatency::26            0                       # Latency to complete the pagefault
system.gpu.shader_mmu.pagefaultLatency::27            0                       # Latency to complete the pagefault
system.gpu.shader_mmu.pagefaultLatency::28            0                       # Latency to complete the pagefault
system.gpu.shader_mmu.pagefaultLatency::29            0                       # Latency to complete the pagefault
system.gpu.shader_mmu.pagefaultLatency::30            0                       # Latency to complete the pagefault
system.gpu.shader_mmu.pagefaultLatency::31            0                       # Latency to complete the pagefault
system.gpu.shader_mmu.pagefaultLatency::total            0                       # Latency to complete the pagefault
system.gpu.shader_mmu.concurrentWalks::samples          168                       # Number of outstanding walks
system.gpu.shader_mmu.concurrentWalks::mean            0                       # Number of outstanding walks
system.gpu.shader_mmu.concurrentWalks::gmean            0                       # Number of outstanding walks
system.gpu.shader_mmu.concurrentWalks::stdev            0                       # Number of outstanding walks
system.gpu.shader_mmu.concurrentWalks::0          168    100.00%    100.00% # Number of outstanding walks
system.gpu.shader_mmu.concurrentWalks::1            0      0.00%    100.00% # Number of outstanding walks
system.gpu.shader_mmu.concurrentWalks::2            0      0.00%    100.00% # Number of outstanding walks
system.gpu.shader_mmu.concurrentWalks::3            0      0.00%    100.00% # Number of outstanding walks
system.gpu.shader_mmu.concurrentWalks::4            0      0.00%    100.00% # Number of outstanding walks
system.gpu.shader_mmu.concurrentWalks::5            0      0.00%    100.00% # Number of outstanding walks
system.gpu.shader_mmu.concurrentWalks::6            0      0.00%    100.00% # Number of outstanding walks
system.gpu.shader_mmu.concurrentWalks::7            0      0.00%    100.00% # Number of outstanding walks
system.gpu.shader_mmu.concurrentWalks::8            0      0.00%    100.00% # Number of outstanding walks
system.gpu.shader_mmu.concurrentWalks::9            0      0.00%    100.00% # Number of outstanding walks
system.gpu.shader_mmu.concurrentWalks::10            0      0.00%    100.00% # Number of outstanding walks
system.gpu.shader_mmu.concurrentWalks::11            0      0.00%    100.00% # Number of outstanding walks
system.gpu.shader_mmu.concurrentWalks::12            0      0.00%    100.00% # Number of outstanding walks
system.gpu.shader_mmu.concurrentWalks::13            0      0.00%    100.00% # Number of outstanding walks
system.gpu.shader_mmu.concurrentWalks::14            0      0.00%    100.00% # Number of outstanding walks
system.gpu.shader_mmu.concurrentWalks::15            0      0.00%    100.00% # Number of outstanding walks
system.gpu.shader_mmu.concurrentWalks::total          168                       # Number of outstanding walks
system.gpu.shader_mmu.pagewalkLatency::samples          168                       # Latency to complete the pagewalk
system.gpu.shader_mmu.pagewalkLatency::mean            0                       # Latency to complete the pagewalk
system.gpu.shader_mmu.pagewalkLatency::gmean            0                       # Latency to complete the pagewalk
system.gpu.shader_mmu.pagewalkLatency::stdev            0                       # Latency to complete the pagewalk
system.gpu.shader_mmu.pagewalkLatency::0          168    100.00%    100.00% # Latency to complete the pagewalk
system.gpu.shader_mmu.pagewalkLatency::1            0      0.00%    100.00% # Latency to complete the pagewalk
system.gpu.shader_mmu.pagewalkLatency::2            0      0.00%    100.00% # Latency to complete the pagewalk
system.gpu.shader_mmu.pagewalkLatency::3            0      0.00%    100.00% # Latency to complete the pagewalk
system.gpu.shader_mmu.pagewalkLatency::4            0      0.00%    100.00% # Latency to complete the pagewalk
system.gpu.shader_mmu.pagewalkLatency::5            0      0.00%    100.00% # Latency to complete the pagewalk
system.gpu.shader_mmu.pagewalkLatency::6            0      0.00%    100.00% # Latency to complete the pagewalk
system.gpu.shader_mmu.pagewalkLatency::7            0      0.00%    100.00% # Latency to complete the pagewalk
system.gpu.shader_mmu.pagewalkLatency::8            0      0.00%    100.00% # Latency to complete the pagewalk
system.gpu.shader_mmu.pagewalkLatency::9            0      0.00%    100.00% # Latency to complete the pagewalk
system.gpu.shader_mmu.pagewalkLatency::10            0      0.00%    100.00% # Latency to complete the pagewalk
system.gpu.shader_mmu.pagewalkLatency::11            0      0.00%    100.00% # Latency to complete the pagewalk
system.gpu.shader_mmu.pagewalkLatency::12            0      0.00%    100.00% # Latency to complete the pagewalk
system.gpu.shader_mmu.pagewalkLatency::13            0      0.00%    100.00% # Latency to complete the pagewalk
system.gpu.shader_mmu.pagewalkLatency::14            0      0.00%    100.00% # Latency to complete the pagewalk
system.gpu.shader_mmu.pagewalkLatency::15            0      0.00%    100.00% # Latency to complete the pagewalk
system.gpu.shader_mmu.pagewalkLatency::16            0      0.00%    100.00% # Latency to complete the pagewalk
system.gpu.shader_mmu.pagewalkLatency::17            0      0.00%    100.00% # Latency to complete the pagewalk
system.gpu.shader_mmu.pagewalkLatency::18            0      0.00%    100.00% # Latency to complete the pagewalk
system.gpu.shader_mmu.pagewalkLatency::19            0      0.00%    100.00% # Latency to complete the pagewalk
system.gpu.shader_mmu.pagewalkLatency::20            0      0.00%    100.00% # Latency to complete the pagewalk
system.gpu.shader_mmu.pagewalkLatency::21            0      0.00%    100.00% # Latency to complete the pagewalk
system.gpu.shader_mmu.pagewalkLatency::22            0      0.00%    100.00% # Latency to complete the pagewalk
system.gpu.shader_mmu.pagewalkLatency::23            0      0.00%    100.00% # Latency to complete the pagewalk
system.gpu.shader_mmu.pagewalkLatency::24            0      0.00%    100.00% # Latency to complete the pagewalk
system.gpu.shader_mmu.pagewalkLatency::25            0      0.00%    100.00% # Latency to complete the pagewalk
system.gpu.shader_mmu.pagewalkLatency::26            0      0.00%    100.00% # Latency to complete the pagewalk
system.gpu.shader_mmu.pagewalkLatency::27            0      0.00%    100.00% # Latency to complete the pagewalk
system.gpu.shader_mmu.pagewalkLatency::28            0      0.00%    100.00% # Latency to complete the pagewalk
system.gpu.shader_mmu.pagewalkLatency::29            0      0.00%    100.00% # Latency to complete the pagewalk
system.gpu.shader_mmu.pagewalkLatency::30            0      0.00%    100.00% # Latency to complete the pagewalk
system.gpu.shader_mmu.pagewalkLatency::31            0      0.00%    100.00% # Latency to complete the pagewalk
system.gpu.shader_mmu.pagewalkLatency::total          168                       # Latency to complete the pagewalk
system.gpu.kernels_completed                        2                       # Number of kernels completed
system.gpu.shader_cores0.itb.hits                   0                       # Number of hits in this TLB
system.gpu.shader_cores0.itb.misses                 0                       # Number of misses in this TLB
system.gpu.shader_cores0.itb.hitRate              nan                       # Hit rate for this TLB
system.gpu.shader_cores0.local_loads                0                       # Number of loads from local space
system.gpu.shader_cores0.local_stores               0                       # Number of stores to local space
system.gpu.shader_cores0.shared_loads            5056                       # Number of loads from shared space
system.gpu.shader_cores0.shared_stores           3072                       # Number of stores to shared space
system.gpu.shader_cores0.param_kernel_loads         7296                       # Number of loads from kernel parameter space
system.gpu.shader_cores0.param_local_loads            0                       # Number of loads from local parameter space
system.gpu.shader_cores0.param_local_stores            0                       # Number of stores to local parameter space
system.gpu.shader_cores0.const_loads                0                       # Number of loads from constant space
system.gpu.shader_cores0.tex_loads                  0                       # Number of loads from texture space
system.gpu.shader_cores0.global_loads            8256                       # Number of loads from global space
system.gpu.shader_cores0.global_stores           3136                       # Number of stores to global space
system.gpu.shader_cores0.surf_loads                 0                       # Number of loads from surface space
system.gpu.shader_cores0.generic_loads              0                       # Number of loads from generic spaces (global, shared, local)
system.gpu.shader_cores0.generic_stores             0                       # Number of stores to generic spaces (global, shared, local)
system.gpu.shader_cores0.inst_cache_requests           12                       # Number of instruction cache requests sent
system.gpu.shader_cores0.inst_cache_retries            0                       # Number of instruction cache retries
system.gpu.shader_cores0.inst_counts::0             0                       # Inst counts: 1: ALU, 2: MAD, 3: CTRL, 4: SFU, 5: MEM, 6: TEX, 7: NOP
system.gpu.shader_cores0.inst_counts::1        130176                       # Inst counts: 1: ALU, 2: MAD, 3: CTRL, 4: SFU, 5: MEM, 6: TEX, 7: NOP
system.gpu.shader_cores0.inst_counts::2          2048                       # Inst counts: 1: ALU, 2: MAD, 3: CTRL, 4: SFU, 5: MEM, 6: TEX, 7: NOP
system.gpu.shader_cores0.inst_counts::3         20416                       # Inst counts: 1: ALU, 2: MAD, 3: CTRL, 4: SFU, 5: MEM, 6: TEX, 7: NOP
system.gpu.shader_cores0.inst_counts::4          6144                       # Inst counts: 1: ALU, 2: MAD, 3: CTRL, 4: SFU, 5: MEM, 6: TEX, 7: NOP
system.gpu.shader_cores0.inst_counts::5         26816                       # Inst counts: 1: ALU, 2: MAD, 3: CTRL, 4: SFU, 5: MEM, 6: TEX, 7: NOP
system.gpu.shader_cores0.inst_counts::6             0                       # Inst counts: 1: ALU, 2: MAD, 3: CTRL, 4: SFU, 5: MEM, 6: TEX, 7: NOP
system.gpu.shader_cores0.inst_counts::7             0                       # Inst counts: 1: ALU, 2: MAD, 3: CTRL, 4: SFU, 5: MEM, 6: TEX, 7: NOP
system.gpu.shader_cores0.activeCycles            7362                       # Number of cycles this shader was executing a CTA
system.gpu.shader_cores0.notStalledCycles         5843                       # Number of cycles this shader was actually executing at least one instance
system.gpu.shader_cores0.instInstances         185600                       # Total instructions executed by all PEs in the core
system.gpu.shader_cores0.instPerCycle       25.210541                       # Instruction instances per cycle
system.gpu.shader_cores0.kernels_completed            2                       # Number of kernels completed
system.gpu.shader_cores0.lsq.data_tlb.hits            0                       # Number of hits in this TLB
system.gpu.shader_cores0.lsq.data_tlb.misses            0                       # Number of misses in this TLB
system.gpu.shader_cores0.lsq.data_tlb.hitRate          nan                       # Hit rate for this TLB
system.gpu.shader_cores0.lsq.warpInstBufActive::samples      8896614                       # Histogram of number of active warp inst buffers at a given time
system.gpu.shader_cores0.lsq.warpInstBufActive::mean     4.872063                       # Histogram of number of active warp inst buffers at a given time
system.gpu.shader_cores0.lsq.warpInstBufActive::gmean          nan                       # Histogram of number of active warp inst buffers at a given time
system.gpu.shader_cores0.lsq.warpInstBufActive::stdev     8.615305                       # Histogram of number of active warp inst buffers at a given time
system.gpu.shader_cores0.lsq.warpInstBufActive::0      5207494     58.53%     58.53% # Histogram of number of active warp inst buffers at a given time
system.gpu.shader_cores0.lsq.warpInstBufActive::1       335204      3.77%     62.30% # Histogram of number of active warp inst buffers at a given time
system.gpu.shader_cores0.lsq.warpInstBufActive::2       317424      3.57%     65.87% # Histogram of number of active warp inst buffers at a given time
system.gpu.shader_cores0.lsq.warpInstBufActive::3       284955      3.20%     69.07% # Histogram of number of active warp inst buffers at a given time
system.gpu.shader_cores0.lsq.warpInstBufActive::4       296580      3.33%     72.41% # Histogram of number of active warp inst buffers at a given time
system.gpu.shader_cores0.lsq.warpInstBufActive::5       159940      1.80%     74.20% # Histogram of number of active warp inst buffers at a given time
system.gpu.shader_cores0.lsq.warpInstBufActive::6       136660      1.54%     75.74% # Histogram of number of active warp inst buffers at a given time
system.gpu.shader_cores0.lsq.warpInstBufActive::7       137122      1.54%     77.28% # Histogram of number of active warp inst buffers at a given time
system.gpu.shader_cores0.lsq.warpInstBufActive::8       204364      2.30%     79.58% # Histogram of number of active warp inst buffers at a given time
system.gpu.shader_cores0.lsq.warpInstBufActive::9       155851      1.75%     81.33% # Histogram of number of active warp inst buffers at a given time
system.gpu.shader_cores0.lsq.warpInstBufActive::10       143586      1.61%     82.94% # Histogram of number of active warp inst buffers at a given time
system.gpu.shader_cores0.lsq.warpInstBufActive::11        49061      0.55%     83.50% # Histogram of number of active warp inst buffers at a given time
system.gpu.shader_cores0.lsq.warpInstBufActive::12        17160      0.19%     83.69% # Histogram of number of active warp inst buffers at a given time
system.gpu.shader_cores0.lsq.warpInstBufActive::13        11423      0.13%     83.82% # Histogram of number of active warp inst buffers at a given time
system.gpu.shader_cores0.lsq.warpInstBufActive::14        26783      0.30%     84.12% # Histogram of number of active warp inst buffers at a given time
system.gpu.shader_cores0.lsq.warpInstBufActive::15       148457      1.67%     85.79% # Histogram of number of active warp inst buffers at a given time
system.gpu.shader_cores0.lsq.warpInstBufActive::16       439602      4.94%     90.73% # Histogram of number of active warp inst buffers at a given time
system.gpu.shader_cores0.lsq.warpInstBufActive::17        28321      0.32%     91.05% # Histogram of number of active warp inst buffers at a given time
system.gpu.shader_cores0.lsq.warpInstBufActive::18        47432      0.53%     91.58% # Histogram of number of active warp inst buffers at a given time
system.gpu.shader_cores0.lsq.warpInstBufActive::19        10780      0.12%     91.70% # Histogram of number of active warp inst buffers at a given time
system.gpu.shader_cores0.lsq.warpInstBufActive::20         7642      0.09%     91.79% # Histogram of number of active warp inst buffers at a given time
system.gpu.shader_cores0.lsq.warpInstBufActive::21        15404      0.17%     91.96% # Histogram of number of active warp inst buffers at a given time
system.gpu.shader_cores0.lsq.warpInstBufActive::22        36032      0.41%     92.36% # Histogram of number of active warp inst buffers at a given time
system.gpu.shader_cores0.lsq.warpInstBufActive::23        22956      0.26%     92.62% # Histogram of number of active warp inst buffers at a given time
system.gpu.shader_cores0.lsq.warpInstBufActive::24        24095      0.27%     92.89% # Histogram of number of active warp inst buffers at a given time
system.gpu.shader_cores0.lsq.warpInstBufActive::25        27601      0.31%     93.20% # Histogram of number of active warp inst buffers at a given time
system.gpu.shader_cores0.lsq.warpInstBufActive::26        47069      0.53%     93.73% # Histogram of number of active warp inst buffers at a given time
system.gpu.shader_cores0.lsq.warpInstBufActive::27        67335      0.76%     94.49% # Histogram of number of active warp inst buffers at a given time
system.gpu.shader_cores0.lsq.warpInstBufActive::28        67653      0.76%     95.25% # Histogram of number of active warp inst buffers at a given time
system.gpu.shader_cores0.lsq.warpInstBufActive::29        61429      0.69%     95.94% # Histogram of number of active warp inst buffers at a given time
system.gpu.shader_cores0.lsq.warpInstBufActive::30        46245      0.52%     96.46% # Histogram of number of active warp inst buffers at a given time
system.gpu.shader_cores0.lsq.warpInstBufActive::31        37674      0.42%     96.88% # Histogram of number of active warp inst buffers at a given time
system.gpu.shader_cores0.lsq.warpInstBufActive::32       277280      3.12%    100.00% # Histogram of number of active warp inst buffers at a given time
system.gpu.shader_cores0.lsq.warpInstBufActive::33            0      0.00%    100.00% # Histogram of number of active warp inst buffers at a given time
system.gpu.shader_cores0.lsq.warpInstBufActive::34            0      0.00%    100.00% # Histogram of number of active warp inst buffers at a given time
system.gpu.shader_cores0.lsq.warpInstBufActive::35            0      0.00%    100.00% # Histogram of number of active warp inst buffers at a given time
system.gpu.shader_cores0.lsq.warpInstBufActive::36            0      0.00%    100.00% # Histogram of number of active warp inst buffers at a given time
system.gpu.shader_cores0.lsq.warpInstBufActive::37            0      0.00%    100.00% # Histogram of number of active warp inst buffers at a given time
system.gpu.shader_cores0.lsq.warpInstBufActive::38            0      0.00%    100.00% # Histogram of number of active warp inst buffers at a given time
system.gpu.shader_cores0.lsq.warpInstBufActive::39            0      0.00%    100.00% # Histogram of number of active warp inst buffers at a given time
system.gpu.shader_cores0.lsq.warpInstBufActive::40            0      0.00%    100.00% # Histogram of number of active warp inst buffers at a given time
system.gpu.shader_cores0.lsq.warpInstBufActive::41            0      0.00%    100.00% # Histogram of number of active warp inst buffers at a given time
system.gpu.shader_cores0.lsq.warpInstBufActive::42            0      0.00%    100.00% # Histogram of number of active warp inst buffers at a given time
system.gpu.shader_cores0.lsq.warpInstBufActive::43            0      0.00%    100.00% # Histogram of number of active warp inst buffers at a given time
system.gpu.shader_cores0.lsq.warpInstBufActive::44            0      0.00%    100.00% # Histogram of number of active warp inst buffers at a given time
system.gpu.shader_cores0.lsq.warpInstBufActive::45            0      0.00%    100.00% # Histogram of number of active warp inst buffers at a given time
system.gpu.shader_cores0.lsq.warpInstBufActive::46            0      0.00%    100.00% # Histogram of number of active warp inst buffers at a given time
system.gpu.shader_cores0.lsq.warpInstBufActive::47            0      0.00%    100.00% # Histogram of number of active warp inst buffers at a given time
system.gpu.shader_cores0.lsq.warpInstBufActive::48            0      0.00%    100.00% # Histogram of number of active warp inst buffers at a given time
system.gpu.shader_cores0.lsq.warpInstBufActive::49            0      0.00%    100.00% # Histogram of number of active warp inst buffers at a given time
system.gpu.shader_cores0.lsq.warpInstBufActive::50            0      0.00%    100.00% # Histogram of number of active warp inst buffers at a given time
system.gpu.shader_cores0.lsq.warpInstBufActive::51            0      0.00%    100.00% # Histogram of number of active warp inst buffers at a given time
system.gpu.shader_cores0.lsq.warpInstBufActive::52            0      0.00%    100.00% # Histogram of number of active warp inst buffers at a given time
system.gpu.shader_cores0.lsq.warpInstBufActive::53            0      0.00%    100.00% # Histogram of number of active warp inst buffers at a given time
system.gpu.shader_cores0.lsq.warpInstBufActive::54            0      0.00%    100.00% # Histogram of number of active warp inst buffers at a given time
system.gpu.shader_cores0.lsq.warpInstBufActive::55            0      0.00%    100.00% # Histogram of number of active warp inst buffers at a given time
system.gpu.shader_cores0.lsq.warpInstBufActive::56            0      0.00%    100.00% # Histogram of number of active warp inst buffers at a given time
system.gpu.shader_cores0.lsq.warpInstBufActive::57            0      0.00%    100.00% # Histogram of number of active warp inst buffers at a given time
system.gpu.shader_cores0.lsq.warpInstBufActive::58            0      0.00%    100.00% # Histogram of number of active warp inst buffers at a given time
system.gpu.shader_cores0.lsq.warpInstBufActive::59            0      0.00%    100.00% # Histogram of number of active warp inst buffers at a given time
system.gpu.shader_cores0.lsq.warpInstBufActive::60            0      0.00%    100.00% # Histogram of number of active warp inst buffers at a given time
system.gpu.shader_cores0.lsq.warpInstBufActive::61            0      0.00%    100.00% # Histogram of number of active warp inst buffers at a given time
system.gpu.shader_cores0.lsq.warpInstBufActive::62            0      0.00%    100.00% # Histogram of number of active warp inst buffers at a given time
system.gpu.shader_cores0.lsq.warpInstBufActive::63            0      0.00%    100.00% # Histogram of number of active warp inst buffers at a given time
system.gpu.shader_cores0.lsq.warpInstBufActive::64            0      0.00%    100.00% # Histogram of number of active warp inst buffers at a given time
system.gpu.shader_cores0.lsq.warpInstBufActive::total      8896614                       # Histogram of number of active warp inst buffers at a given time
system.gpu.shader_cores0.lsq.cacheAccesses     0.002603                       # Average number of concurrent outstanding cache accesses
system.gpu.shader_cores0.lsq.writebackBlockedCycles            5                       # Number of cycles blocked for core writeback stage
system.gpu.shader_cores0.lsq.mshrHitQueued           78                       # Number of hits on blocked lines in MSHRs
system.gpu.shader_cores0.lsq.mshrsFullCycles            0                       # Number of cycles stalled waiting for an MSHR
system.gpu.shader_cores0.lsq.mshrsFullCount            0                       # Number of times MSHRs filled
system.gpu.shader_cores0.lsq.warpCoalescedAccesses::samples          416                       # Number of coalesced accesses per warp instruction
system.gpu.shader_cores0.lsq.warpCoalescedAccesses::mean     1.769231                       # Number of coalesced accesses per warp instruction
system.gpu.shader_cores0.lsq.warpCoalescedAccesses::gmean     1.601517                       # Number of coalesced accesses per warp instruction
system.gpu.shader_cores0.lsq.warpCoalescedAccesses::stdev     0.782098                       # Number of coalesced accesses per warp instruction
system.gpu.shader_cores0.lsq.warpCoalescedAccesses::0            0      0.00%      0.00% # Number of coalesced accesses per warp instruction
system.gpu.shader_cores0.lsq.warpCoalescedAccesses::1          186     44.71%     44.71% # Number of coalesced accesses per warp instruction
system.gpu.shader_cores0.lsq.warpCoalescedAccesses::2          140     33.65%     78.37% # Number of coalesced accesses per warp instruction
system.gpu.shader_cores0.lsq.warpCoalescedAccesses::3           90     21.63%    100.00% # Number of coalesced accesses per warp instruction
system.gpu.shader_cores0.lsq.warpCoalescedAccesses::4            0      0.00%    100.00% # Number of coalesced accesses per warp instruction
system.gpu.shader_cores0.lsq.warpCoalescedAccesses::5            0      0.00%    100.00% # Number of coalesced accesses per warp instruction
system.gpu.shader_cores0.lsq.warpCoalescedAccesses::6            0      0.00%    100.00% # Number of coalesced accesses per warp instruction
system.gpu.shader_cores0.lsq.warpCoalescedAccesses::7            0      0.00%    100.00% # Number of coalesced accesses per warp instruction
system.gpu.shader_cores0.lsq.warpCoalescedAccesses::8            0      0.00%    100.00% # Number of coalesced accesses per warp instruction
system.gpu.shader_cores0.lsq.warpCoalescedAccesses::9            0      0.00%    100.00% # Number of coalesced accesses per warp instruction
system.gpu.shader_cores0.lsq.warpCoalescedAccesses::10            0      0.00%    100.00% # Number of coalesced accesses per warp instruction
system.gpu.shader_cores0.lsq.warpCoalescedAccesses::11            0      0.00%    100.00% # Number of coalesced accesses per warp instruction
system.gpu.shader_cores0.lsq.warpCoalescedAccesses::12            0      0.00%    100.00% # Number of coalesced accesses per warp instruction
system.gpu.shader_cores0.lsq.warpCoalescedAccesses::13            0      0.00%    100.00% # Number of coalesced accesses per warp instruction
system.gpu.shader_cores0.lsq.warpCoalescedAccesses::14            0      0.00%    100.00% # Number of coalesced accesses per warp instruction
system.gpu.shader_cores0.lsq.warpCoalescedAccesses::15            0      0.00%    100.00% # Number of coalesced accesses per warp instruction
system.gpu.shader_cores0.lsq.warpCoalescedAccesses::16            0      0.00%    100.00% # Number of coalesced accesses per warp instruction
system.gpu.shader_cores0.lsq.warpCoalescedAccesses::17            0      0.00%    100.00% # Number of coalesced accesses per warp instruction
system.gpu.shader_cores0.lsq.warpCoalescedAccesses::18            0      0.00%    100.00% # Number of coalesced accesses per warp instruction
system.gpu.shader_cores0.lsq.warpCoalescedAccesses::19            0      0.00%    100.00% # Number of coalesced accesses per warp instruction
system.gpu.shader_cores0.lsq.warpCoalescedAccesses::20            0      0.00%    100.00% # Number of coalesced accesses per warp instruction
system.gpu.shader_cores0.lsq.warpCoalescedAccesses::21            0      0.00%    100.00% # Number of coalesced accesses per warp instruction
system.gpu.shader_cores0.lsq.warpCoalescedAccesses::22            0      0.00%    100.00% # Number of coalesced accesses per warp instruction
system.gpu.shader_cores0.lsq.warpCoalescedAccesses::23            0      0.00%    100.00% # Number of coalesced accesses per warp instruction
system.gpu.shader_cores0.lsq.warpCoalescedAccesses::24            0      0.00%    100.00% # Number of coalesced accesses per warp instruction
system.gpu.shader_cores0.lsq.warpCoalescedAccesses::25            0      0.00%    100.00% # Number of coalesced accesses per warp instruction
system.gpu.shader_cores0.lsq.warpCoalescedAccesses::26            0      0.00%    100.00% # Number of coalesced accesses per warp instruction
system.gpu.shader_cores0.lsq.warpCoalescedAccesses::27            0      0.00%    100.00% # Number of coalesced accesses per warp instruction
system.gpu.shader_cores0.lsq.warpCoalescedAccesses::28            0      0.00%    100.00% # Number of coalesced accesses per warp instruction
system.gpu.shader_cores0.lsq.warpCoalescedAccesses::29            0      0.00%    100.00% # Number of coalesced accesses per warp instruction
system.gpu.shader_cores0.lsq.warpCoalescedAccesses::30            0      0.00%    100.00% # Number of coalesced accesses per warp instruction
system.gpu.shader_cores0.lsq.warpCoalescedAccesses::31            0      0.00%    100.00% # Number of coalesced accesses per warp instruction
system.gpu.shader_cores0.lsq.warpCoalescedAccesses::32            0      0.00%    100.00% # Number of coalesced accesses per warp instruction
system.gpu.shader_cores0.lsq.warpCoalescedAccesses::total          416                       # Number of coalesced accesses per warp instruction
system.gpu.shader_cores0.lsq.warpLatencyRead::samples          288                       # Latency in cycles for whole warp to finish the read
system.gpu.shader_cores0.lsq.warpLatencyRead::mean    95.128472                       # Latency in cycles for whole warp to finish the read
system.gpu.shader_cores0.lsq.warpLatencyRead::gmean    42.271601                       # Latency in cycles for whole warp to finish the read
system.gpu.shader_cores0.lsq.warpLatencyRead::stdev   139.929627                       # Latency in cycles for whole warp to finish the read
system.gpu.shader_cores0.lsq.warpLatencyRead::0-63          195     67.71%     67.71% # Latency in cycles for whole warp to finish the read
system.gpu.shader_cores0.lsq.warpLatencyRead::64-127           34     11.81%     79.51% # Latency in cycles for whole warp to finish the read
system.gpu.shader_cores0.lsq.warpLatencyRead::128-191            6      2.08%     81.60% # Latency in cycles for whole warp to finish the read
system.gpu.shader_cores0.lsq.warpLatencyRead::192-255           13      4.51%     86.11% # Latency in cycles for whole warp to finish the read
system.gpu.shader_cores0.lsq.warpLatencyRead::256-319           16      5.56%     91.67% # Latency in cycles for whole warp to finish the read
system.gpu.shader_cores0.lsq.warpLatencyRead::320-383            8      2.78%     94.44% # Latency in cycles for whole warp to finish the read
system.gpu.shader_cores0.lsq.warpLatencyRead::384-447            4      1.39%     95.83% # Latency in cycles for whole warp to finish the read
system.gpu.shader_cores0.lsq.warpLatencyRead::448-511            5      1.74%     97.57% # Latency in cycles for whole warp to finish the read
system.gpu.shader_cores0.lsq.warpLatencyRead::512-575            1      0.35%     97.92% # Latency in cycles for whole warp to finish the read
system.gpu.shader_cores0.lsq.warpLatencyRead::576-639            3      1.04%     98.96% # Latency in cycles for whole warp to finish the read
system.gpu.shader_cores0.lsq.warpLatencyRead::640-703            2      0.69%     99.65% # Latency in cycles for whole warp to finish the read
system.gpu.shader_cores0.lsq.warpLatencyRead::704-767            1      0.35%    100.00% # Latency in cycles for whole warp to finish the read
system.gpu.shader_cores0.lsq.warpLatencyRead::768-831            0      0.00%    100.00% # Latency in cycles for whole warp to finish the read
system.gpu.shader_cores0.lsq.warpLatencyRead::832-895            0      0.00%    100.00% # Latency in cycles for whole warp to finish the read
system.gpu.shader_cores0.lsq.warpLatencyRead::896-959            0      0.00%    100.00% # Latency in cycles for whole warp to finish the read
system.gpu.shader_cores0.lsq.warpLatencyRead::960-1023            0      0.00%    100.00% # Latency in cycles for whole warp to finish the read
system.gpu.shader_cores0.lsq.warpLatencyRead::total          288                       # Latency in cycles for whole warp to finish the read
system.gpu.shader_cores0.lsq.warpLatencyWrite::samples          128                       # Latency in cycles for whole warp to finish the write
system.gpu.shader_cores0.lsq.warpLatencyWrite::mean    21.523438                       # Latency in cycles for whole warp to finish the write
system.gpu.shader_cores0.lsq.warpLatencyWrite::gmean    18.945252                       # Latency in cycles for whole warp to finish the write
system.gpu.shader_cores0.lsq.warpLatencyWrite::stdev    12.368340                       # Latency in cycles for whole warp to finish the write
system.gpu.shader_cores0.lsq.warpLatencyWrite::0-3            0      0.00%      0.00% # Latency in cycles for whole warp to finish the write
system.gpu.shader_cores0.lsq.warpLatencyWrite::4-7            0      0.00%      0.00% # Latency in cycles for whole warp to finish the write
system.gpu.shader_cores0.lsq.warpLatencyWrite::8-11           21     16.41%     16.41% # Latency in cycles for whole warp to finish the write
system.gpu.shader_cores0.lsq.warpLatencyWrite::12-15           31     24.22%     40.62% # Latency in cycles for whole warp to finish the write
system.gpu.shader_cores0.lsq.warpLatencyWrite::16-19           29     22.66%     63.28% # Latency in cycles for whole warp to finish the write
system.gpu.shader_cores0.lsq.warpLatencyWrite::20-23           12      9.38%     72.66% # Latency in cycles for whole warp to finish the write
system.gpu.shader_cores0.lsq.warpLatencyWrite::24-27            6      4.69%     77.34% # Latency in cycles for whole warp to finish the write
system.gpu.shader_cores0.lsq.warpLatencyWrite::28-31            4      3.12%     80.47% # Latency in cycles for whole warp to finish the write
system.gpu.shader_cores0.lsq.warpLatencyWrite::32-35            4      3.12%     83.59% # Latency in cycles for whole warp to finish the write
system.gpu.shader_cores0.lsq.warpLatencyWrite::36-39            5      3.91%     87.50% # Latency in cycles for whole warp to finish the write
system.gpu.shader_cores0.lsq.warpLatencyWrite::40-43            6      4.69%     92.19% # Latency in cycles for whole warp to finish the write
system.gpu.shader_cores0.lsq.warpLatencyWrite::44-47            3      2.34%     94.53% # Latency in cycles for whole warp to finish the write
system.gpu.shader_cores0.lsq.warpLatencyWrite::48-51            3      2.34%     96.88% # Latency in cycles for whole warp to finish the write
system.gpu.shader_cores0.lsq.warpLatencyWrite::52-55            1      0.78%     97.66% # Latency in cycles for whole warp to finish the write
system.gpu.shader_cores0.lsq.warpLatencyWrite::56-59            1      0.78%     98.44% # Latency in cycles for whole warp to finish the write
system.gpu.shader_cores0.lsq.warpLatencyWrite::60-63            2      1.56%    100.00% # Latency in cycles for whole warp to finish the write
system.gpu.shader_cores0.lsq.warpLatencyWrite::total          128                       # Latency in cycles for whole warp to finish the write
system.gpu.shader_cores0.lsq.tlbMissLatency::samples            0                       # Latency in cycles for TLB miss
system.gpu.shader_cores0.lsq.tlbMissLatency::mean          nan                       # Latency in cycles for TLB miss
system.gpu.shader_cores0.lsq.tlbMissLatency::gmean          nan                       # Latency in cycles for TLB miss
system.gpu.shader_cores0.lsq.tlbMissLatency::stdev          nan                       # Latency in cycles for TLB miss
system.gpu.shader_cores0.lsq.tlbMissLatency::0            0                       # Latency in cycles for TLB miss
system.gpu.shader_cores0.lsq.tlbMissLatency::1            0                       # Latency in cycles for TLB miss
[...]
system.ruby.L1Cache_Controller.MM.L2_Replacement |           0      0.00%      0.00% |           0      0.00%      0.00% |           0      0.00%      0.00% |           0      0.00%      0.00% |           0      0.00%      0.00% |           0      0.00%      0.00% |         501    100.00%    100.00%
system.ruby.L1Cache_Controller.MM.L2_Replacement::total          501                      
system.ruby.L1Cache_Controller.MM.L1_to_L2 |         701     56.31%     56.31% |           0      0.00%     56.31% |           0      0.00%     56.31% |           0      0.00%     56.31% |           0      0.00%     56.31% |           0      0.00%     56.31% |         544     43.69%    100.00%
system.ruby.L1Cache_Controller.MM.L1_to_L2::total         1245                      
system.ruby.L1Cache_Controller.MM.Trigger_L2_to_L1D |         453    100.00%    100.00% |           0      0.00%    100.00% |           0      0.00%    100.00% |           0      0.00%    100.00% |           0      0.00%    100.00% |           0      0.00%    100.00% |           0      0.00%    100.00%
system.ruby.L1Cache_Controller.MM.Trigger_L2_to_L1D::total          453                      
system.ruby.L1Cache_Controller.MM.Other_GETX |           8      4.47%      4.47% |          39     21.79%     26.26% |          43     24.02%     50.28% |          40     22.35%     72.63% |          49     27.37%    100.00% |           0      0.00%    100.00% |           0      0.00%    100.00%
system.ruby.L1Cache_Controller.MM.Other_GETX::total          179                      
system.ruby.L1Cache_Controller.MM.Other_GETS |         285     58.16%     58.16% |          38      7.76%     65.92% |          41      8.37%     74.29% |          36      7.35%     81.63% |          35      7.14%     88.78% |           0      0.00%     88.78% |          55     11.22%    100.00%
system.ruby.L1Cache_Controller.MM.Other_GETS::total          490                      
system.ruby.L1Cache_Controller.IR.Load   |          44    100.00%    100.00% |           0      0.00%    100.00% |           0      0.00%    100.00% |           0      0.00%    100.00% |           0      0.00%    100.00% |           0      0.00%    100.00% |           0      0.00%    100.00%
system.ruby.L1Cache_Controller.IR.Load::total           44                      
system.ruby.L1Cache_Controller.MR.Load   |          21    100.00%    100.00% |           0      0.00%    100.00% |           0      0.00%    100.00% |           0      0.00%    100.00% |           0      0.00%    100.00% |           0      0.00%    100.00% |           0      0.00%    100.00%
system.ruby.L1Cache_Controller.MR.Load::total           21                      
system.ruby.L1Cache_Controller.MR.Ifetch |        5070    100.00%    100.00% |           0      0.00%    100.00% |           0      0.00%    100.00% |           0      0.00%    100.00% |           0      0.00%    100.00% |           0      0.00%    100.00% |           0      0.00%    100.00%
system.ruby.L1Cache_Controller.MR.Ifetch::total         5070                      
system.ruby.L1Cache_Controller.MR.Store  |           1    100.00%    100.00% |           0      0.00%    100.00% |           0      0.00%    100.00% |           0      0.00%    100.00% |           0      0.00%    100.00% |           0      0.00%    100.00% |           0      0.00%    100.00%
system.ruby.L1Cache_Controller.MR.Store::total            1                      
system.ruby.L1Cache_Controller.MMR.Load  |         432    100.00%    100.00% |           0      0.00%    100.00% |           0      0.00%    100.00% |           0      0.00%    100.00% |           0      0.00%    100.00% |           0      0.00%    100.00% |           0      0.00%    100.00%
system.ruby.L1Cache_Controller.MMR.Load::total          432                      
system.ruby.L1Cache_Controller.MMR.Store |          21    100.00%    100.00% |           0      0.00%    100.00% |           0      0.00%    100.00% |           0      0.00%    100.00% |           0      0.00%    100.00% |           0      0.00%    100.00% |           0      0.00%    100.00%
system.ruby.L1Cache_Controller.MMR.Store::total           21                      
system.ruby.L1Cache_Controller.IM.L1_to_L2 |           0      0.00%      0.00% |           0      0.00%      0.00% |           0      0.00%      0.00% |           0      0.00%      0.00% |           0      0.00%      0.00% |           0      0.00%      0.00% |       21743    100.00%    100.00%
system.ruby.L1Cache_Controller.IM.L1_to_L2::total        21743                      
system.ruby.L1Cache_Controller.IM.Ack    |        4833     60.56%     60.56% |          16      0.20%     60.76% |          57      0.71%     61.48% |          33      0.41%     61.89% |          38      0.48%     62.37% |           0      0.00%     62.37% |        3003     37.63%    100.00%
system.ruby.L1Cache_Controller.IM.Ack::total         7980                      
system.ruby.L1Cache_Controller.IM.Data   |           1     16.67%     16.67% |           0      0.00%     16.67% |           0      0.00%     16.67% |           0      0.00%     16.67% |           0      0.00%     16.67% |           0      0.00%     16.67% |           5     83.33%    100.00%
system.ruby.L1Cache_Controller.IM.Data::total            6                      
system.ruby.L1Cache_Controller.IM.Exclusive_Data |         805     56.77%     56.77% |           5      0.35%     57.12% |          17      1.20%     58.32% |           9      0.63%     58.96% |          11      0.78%     59.73% |           0      0.00%     59.73% |         571     40.27%    100.00%
system.ruby.L1Cache_Controller.IM.Exclusive_Data::total         1418                      
system.ruby.L1Cache_Controller.SM.Ack    |           4     18.18%     18.18% |           1      4.55%     22.73% |           5     22.73%     45.45% |           4     18.18%     63.64% |           8     36.36%    100.00% |           0      0.00%    100.00% |           0      0.00%    100.00%
system.ruby.L1Cache_Controller.SM.Ack::total           22                      
system.ruby.L1Cache_Controller.SM.Data   |           2     22.22%     22.22% |           1     11.11%     33.33% |           1     11.11%     44.44% |           1     11.11%     55.56% |           4     44.44%    100.00% |           0      0.00%    100.00% |           0      0.00%    100.00%
system.ruby.L1Cache_Controller.SM.Data::total            9                      
system.ruby.L1Cache_Controller.OM.Other_GETX |           0      0.00%      0.00% |           0      0.00%      0.00% |           1     50.00%     50.00% |           0      0.00%     50.00% |           1     50.00%    100.00% |           0      0.00%    100.00% |           0      0.00%    100.00%
system.ruby.L1Cache_Controller.OM.Other_GETX::total            2                      
system.ruby.L1Cache_Controller.OM.Ack    |           0      0.00%      0.00% |          30     19.23%     19.23% |          36     23.08%     42.31% |          24     15.38%     57.69% |          66     42.31%    100.00% |           0      0.00%    100.00% |           0      0.00%    100.00%
system.ruby.L1Cache_Controller.OM.Ack::total          156                      
system.ruby.L1Cache_Controller.OM.All_acks_no_sharers |           0      0.00%      0.00% |           5     19.23%     19.23% |           6     23.08%     42.31% |           4     15.38%     57.69% |          11     42.31%    100.00% |           0      0.00%    100.00% |           0      0.00%    100.00%
system.ruby.L1Cache_Controller.OM.All_acks_no_sharers::total           26                      
system.ruby.L1Cache_Controller.ISM.L1_to_L2 |           0      0.00%      0.00% |           0      0.00%      0.00% |           0      0.00%      0.00% |           0      0.00%      0.00% |           0      0.00%      0.00% |           0      0.00%      0.00% |          12    100.00%    100.00%
system.ruby.L1Cache_Controller.ISM.L1_to_L2::total           12                      
system.ruby.L1Cache_Controller.ISM.Ack   |           7     17.50%     17.50% |           4     10.00%     27.50% |           0      0.00%     27.50% |           1      2.50%     30.00% |          12     30.00%     60.00% |           0      0.00%     60.00% |          16     40.00%    100.00%
system.ruby.L1Cache_Controller.ISM.Ack::total           40                      
system.ruby.L1Cache_Controller.ISM.All_acks_no_sharers |           3     20.00%     20.00% |           1      6.67%     26.67% |           1      6.67%     33.33% |           1      6.67%     40.00% |           4     26.67%     66.67% |           0      0.00%     66.67% |           5     33.33%    100.00%
system.ruby.L1Cache_Controller.ISM.All_acks_no_sharers::total           15                      
system.ruby.L1Cache_Controller.M_W.L1_to_L2 |           0      0.00%      0.00% |           0      0.00%      0.00% |           0      0.00%      0.00% |           0      0.00%      0.00% |           0      0.00%      0.00% |           0      0.00%      0.00% |         386    100.00%    100.00%
system.ruby.L1Cache_Controller.M_W.L1_to_L2::total          386                      
system.ruby.L1Cache_Controller.M_W.Ack   |          20      3.09%      3.09% |          36      5.56%      8.66% |          16      2.47%     11.13% |           2      0.31%     11.44% |          10      1.55%     12.98% |           0      0.00%     12.98% |         563     87.02%    100.00%
system.ruby.L1Cache_Controller.M_W.Ack::total          647                      
system.ruby.L1Cache_Controller.M_W.All_acks_no_sharers |         663     39.92%     39.92% |         113      6.80%     46.72% |         108      6.50%     53.22% |         108      6.50%     59.72% |         107      6.44%     66.16% |           0      0.00%     66.16% |         562     33.84%    100.00%
system.ruby.L1Cache_Controller.M_W.All_acks_no_sharers::total         1661                      
system.ruby.L1Cache_Controller.MM_W.Store |           0      0.00%      0.00% |           2     33.33%     33.33% |           2     33.33%     66.67% |           0      0.00%     66.67% |           2     33.33%    100.00% |           0      0.00%    100.00% |           0      0.00%    100.00%
system.ruby.L1Cache_Controller.MM_W.Store::total            6                      
system.ruby.L1Cache_Controller.MM_W.L1_to_L2 |           0      0.00%      0.00% |           0      0.00%      0.00% |           0      0.00%      0.00% |           0      0.00%      0.00% |           0      0.00%      0.00% |           0      0.00%      0.00% |         234    100.00%    100.00%
system.ruby.L1Cache_Controller.MM_W.L1_to_L2::total          234                      
system.ruby.L1Cache_Controller.MM_W.Ack  |           0      0.00%      0.00% |          10      2.88%      2.88% |          28      8.07%     10.95% |          14      4.03%     14.99% |          20      5.76%     20.75% |           0      0.00%     20.75% |         275     79.25%    100.00%
system.ruby.L1Cache_Controller.MM_W.Ack::total          347                      
system.ruby.L1Cache_Controller.MM_W.All_acks_no_sharers |         805     56.77%     56.77% |           5      0.35%     57.12% |          17      1.20%     58.32% |           9      0.63%     58.96% |          11      0.78%     59.73% |           0      0.00%     59.73% |         571     40.27%    100.00%
system.ruby.L1Cache_Controller.MM_W.All_acks_no_sharers::total         1418                      
system.ruby.L1Cache_Controller.IS.L1_to_L2 |           0      0.00%      0.00% |           0      0.00%      0.00% |           0      0.00%      0.00% |           0      0.00%      0.00% |           0      0.00%      0.00% |           0      0.00%      0.00% |       19318    100.00%    100.00%
system.ruby.L1Cache_Controller.IS.L1_to_L2::total        19318                      
system.ruby.L1Cache_Controller.IS.Other_GETS |           0      0.00%      0.00% |           5     20.83%     20.83% |           7     29.17%     50.00% |           3     12.50%     62.50% |           9     37.50%    100.00% |           0      0.00%    100.00% |           0      0.00%    100.00%
system.ruby.L1Cache_Controller.IS.Other_GETS::total           24                      
system.ruby.L1Cache_Controller.IS.Ack    |        3950     43.60%     43.60% |         635      7.01%     50.61% |         678      7.48%     58.10% |         689      7.61%     65.70% |         688      7.59%     73.30% |           0      0.00%     73.30% |        2419     26.70%    100.00%
system.ruby.L1Cache_Controller.IS.Ack::total         9059                      
system.ruby.L1Cache_Controller.IS.Shared_Ack |           0      0.00%      0.00% |           0      0.00%      0.00% |           2     28.57%     28.57% |           2     28.57%     57.14% |           0      0.00%     57.14% |           0      0.00%     57.14% |           3     42.86%    100.00%
system.ruby.L1Cache_Controller.IS.Shared_Ack::total            7                      
system.ruby.L1Cache_Controller.IS.Shared_Data |           2      1.98%      1.98% |          12     11.88%     13.86% |          27     26.73%     40.59% |          17     16.83%     57.43% |          28     27.72%     85.15% |           0      0.00%     85.15% |          15     14.85%    100.00%
system.ruby.L1Cache_Controller.IS.Shared_Data::total          101                      
system.ruby.L1Cache_Controller.IS.Exclusive_Data |         663     39.92%     39.92% |         113      6.80%     46.72% |         108      6.50%     53.22% |         108      6.50%     59.72% |         107      6.44%     66.16% |           0      0.00%     66.16% |         562     33.84%    100.00%
system.ruby.L1Cache_Controller.IS.Exclusive_Data::total         1661                      
system.ruby.L1Cache_Controller.SS.Load   |           0      0.00%      0.00% |           0      0.00%      0.00% |           2     18.18%     18.18% |           3     27.27%     45.45% |           6     54.55%    100.00% |           0      0.00%    100.00% |           0      0.00%    100.00%
system.ruby.L1Cache_Controller.SS.Load::total           11                      
system.ruby.L1Cache_Controller.SS.L1_to_L2 |           0      0.00%      0.00% |           0      0.00%      0.00% |           0      0.00%      0.00% |           0      0.00%      0.00% |           0      0.00%      0.00% |           0      0.00%      0.00% |          36    100.00%    100.00%
system.ruby.L1Cache_Controller.SS.L1_to_L2::total           36                      
system.ruby.L1Cache_Controller.SS.Ack    |           4      2.82%      2.82% |          21     14.79%     17.61% |          32     22.54%     40.14% |          20     14.08%     54.23% |          42     29.58%     83.80% |           0      0.00%     83.80% |          23     16.20%    100.00%
system.ruby.L1Cache_Controller.SS.Ack::total          142                      
system.ruby.L1Cache_Controller.SS.Shared_Ack |           3     14.29%     14.29% |           2      9.52%     23.81% |           4     19.05%     42.86% |           3     14.29%     57.14% |           0      0.00%     57.14% |           0      0.00%     57.14% |           9     42.86%    100.00%
system.ruby.L1Cache_Controller.SS.Shared_Ack::total           21                      
system.ruby.L1Cache_Controller.SS.All_acks |           2      1.98%      1.98% |          12     11.88%     13.86% |          27     26.73%     40.59% |          17     16.83%     57.43% |          28     27.72%     85.15% |           0      0.00%     85.15% |          15     14.85%    100.00%
system.ruby.L1Cache_Controller.SS.All_acks::total          101                      
system.ruby.L1Cache_Controller.MI.Writeback_Ack |           0      0.00%      0.00% |           0      0.00%      0.00% |           0      0.00%      0.00% |           0      0.00%      0.00% |           0      0.00%      0.00% |           0      0.00%      0.00% |        1063    100.00%    100.00%
system.ruby.L1Cache_Controller.MI.Writeback_Ack::total         1063                      
system.ruby.L1Cache_Controller.IT.Complete_L2_to_L1 |          44    100.00%    100.00% |           0      0.00%    100.00% |           0      0.00%    100.00% |           0      0.00%    100.00% |           0      0.00%    100.00% |           0      0.00%    100.00% |           0      0.00%    100.00%
system.ruby.L1Cache_Controller.IT.Complete_L2_to_L1::total           44                      
system.ruby.L1Cache_Controller.MT.Complete_L2_to_L1 |        5092    100.00%    100.00% |           0      0.00%    100.00% |           0      0.00%    100.00% |           0      0.00%    100.00% |           0      0.00%    100.00% |           0      0.00%    100.00% |           0      0.00%    100.00%
system.ruby.L1Cache_Controller.MT.Complete_L2_to_L1::total         5092                      
system.ruby.L1Cache_Controller.MMT.Complete_L2_to_L1 |         453    100.00%    100.00% |           0      0.00%    100.00% |           0      0.00%    100.00% |           0      0.00%    100.00% |           0      0.00%    100.00% |           0      0.00%    100.00% |           0      0.00%    100.00%
system.ruby.L1Cache_Controller.MMT.Complete_L2_to_L1::total          453                      
system.ruby.Directory_Controller.GETX            1461      0.00%      0.00%
system.ruby.Directory_Controller.GETS            1800      0.00%      0.00%
system.ruby.Directory_Controller.PUT             1066      0.00%      0.00%
system.ruby.Directory_Controller.UnblockS          101      0.00%      0.00%
system.ruby.Directory_Controller.UnblockM         3120      0.00%      0.00%
system.ruby.Directory_Controller.Writeback_Exclusive_Clean          132      0.00%      0.00%
system.ruby.Directory_Controller.Writeback_Exclusive_Dirty          931      0.00%      0.00%
system.ruby.Directory_Controller.Memory_Data         2395      0.00%      0.00%
system.ruby.Directory_Controller.Memory_Ack          931      0.00%      0.00%
system.ruby.Directory_Controller.All_Unblocks           11      0.00%      0.00%
system.ruby.Directory_Controller.NX.GETX           41      0.00%      0.00%
system.ruby.Directory_Controller.NX.GETS           21      0.00%      0.00%
system.ruby.Directory_Controller.NO.GETX          194      0.00%      0.00%
system.ruby.Directory_Controller.NO.GETS          549      0.00%      0.00%
system.ruby.Directory_Controller.NO.PUT          1063      0.00%      0.00%
system.ruby.Directory_Controller.E.GETX          1224      0.00%      0.00%
system.ruby.Directory_Controller.E.GETS          1171      0.00%      0.00%
system.ruby.Directory_Controller.NO_B.GETX            2      0.00%      0.00%
system.ruby.Directory_Controller.NO_B.GETS           11      0.00%      0.00%
system.ruby.Directory_Controller.NO_B.PUT            3      0.00%      0.00%
system.ruby.Directory_Controller.NO_B.UnblockS           70      0.00%      0.00%
system.ruby.Directory_Controller.NO_B.UnblockM         3117      0.00%      0.00%
system.ruby.Directory_Controller.NO_B_X.UnblockM            2      0.00%      0.00%
system.ruby.Directory_Controller.NO_B_S.GETS           10      0.00%      0.00%
system.ruby.Directory_Controller.NO_B_S.UnblockS           10      0.00%      0.00%
system.ruby.Directory_Controller.NO_B_S.UnblockM            1      0.00%      0.00%
system.ruby.Directory_Controller.NO_B_S_W.UnblockS           21      0.00%      0.00%
system.ruby.Directory_Controller.NO_B_S_W.All_Unblocks           11      0.00%      0.00%
system.ruby.Directory_Controller.NO_B_W.GETS           38      0.00%      0.00%
system.ruby.Directory_Controller.NO_B_W.Memory_Data         2395      0.00%      0.00%
system.ruby.Directory_Controller.WB.Writeback_Exclusive_Clean          132      0.00%      0.00%
system.ruby.Directory_Controller.WB.Writeback_Exclusive_Dirty          931      0.00%      0.00%
system.ruby.Directory_Controller.WB_E_W.Memory_Ack          931      0.00%      0.00%

---------- End Simulation Statistics   ----------
