
---------- Begin Simulation Statistics ----------
sim_seconds                                  0.013297                       # Number of seconds simulated
sim_ticks                                 13296786000                       # Number of ticks simulated
final_tick                                13296786000                       # Number of ticks from beginning of simulation (restored from checkpoints and never reset)
sim_freq                                 1000000000000                       # Frequency of simulated ticks
host_inst_rate                                 116517                       # Simulator instruction rate (inst/s)
host_op_rate                                   222598                       # Simulator op (including micro ops) rate (op/s)
host_tick_rate                              312337889                       # Simulator tick rate (ticks/s)
host_mem_usage                                2405404                       # Number of bytes of host memory used
host_seconds                                    42.57                       # Real time elapsed on the host
sim_insts                                     4960342                       # Number of instructions simulated
sim_ops                                       9476372                       # Number of ops (including micro ops) simulated
system.voltage_domain.voltage                       1                       # Voltage in Volts
system.clk_domain.clock                          1000                       # Clock period in ticks
system.mem_ctrls.bytes_read::gpu.shader_cores0.data        34944                       # Number of bytes read from this memory
system.mem_ctrls.bytes_read::gpu.shader_cores0.inst          288                       # Number of bytes read from this memory
system.mem_ctrls.bytes_read::gpu.shader_cores1.data        35584                       # Number of bytes read from this memory
system.mem_ctrls.bytes_read::gpu.shader_cores1.inst          312                       # Number of bytes read from this memory
system.mem_ctrls.bytes_read::gpu.shader_cores2.data        34944                       # Number of bytes read from this memory
system.mem_ctrls.bytes_read::gpu.shader_cores2.inst          288                       # Number of bytes read from this memory
system.mem_ctrls.bytes_read::gpu.shader_cores3.data        34944                       # Number of bytes read from this memory
system.mem_ctrls.bytes_read::gpu.shader_cores3.inst          288                       # Number of bytes read from this memory
system.mem_ctrls.bytes_read::gpu.ce             73052                       # Number of bytes read from this memory
system.mem_ctrls.bytes_read::cpu.inst        53320888                       # Number of bytes read from this memory
system.mem_ctrls.bytes_read::cpu.data         7972111                       # Number of bytes read from this memory
system.mem_ctrls.bytes_read::total           61507643                       # Number of bytes read from this memory
system.mem_ctrls.bytes_inst_read::gpu.shader_cores0.inst          288                       # Number of instructions bytes read from this memory
system.mem_ctrls.bytes_inst_read::gpu.shader_cores1.inst          312                       # Number of instructions bytes read from this memory
system.mem_ctrls.bytes_inst_read::gpu.shader_cores2.inst          288                       # Number of instructions bytes read from this memory
system.mem_ctrls.bytes_inst_read::gpu.shader_cores3.inst          288                       # Number of instructions bytes read from this memory
system.mem_ctrls.bytes_inst_read::cpu.inst     53320888                       # Number of instructions bytes read from this memory
system.mem_ctrls.bytes_inst_read::total      53322064                       # Number of instructions bytes read from this memory
system.mem_ctrls.bytes_written::gpu.shader_cores0.data        12544                       # Number of bytes written to this memory
system.mem_ctrls.bytes_written::gpu.shader_cores1.data        12672                       # Number of bytes written to this memory
system.mem_ctrls.bytes_written::gpu.shader_cores2.data        12544                       # Number of bytes written to this memory
system.mem_ctrls.bytes_written::gpu.shader_cores3.data        12544                       # Number of bytes written to this memory
system.mem_ctrls.bytes_written::gpu.ce          73052                       # Number of bytes written to this memory
system.mem_ctrls.bytes_written::cpu.data      4969927                       # Number of bytes written to this memory
system.mem_ctrls.bytes_written::total         5093283                       # Number of bytes written to this memory
system.mem_ctrls.num_reads::gpu.shader_cores0.data          422                       # Number of read requests responded to by this memory
system.mem_ctrls.num_reads::gpu.shader_cores0.inst           12                       # Number of read requests responded to by this memory
system.mem_ctrls.num_reads::gpu.shader_cores1.data          427                       # Number of read requests responded to by this memory
system.mem_ctrls.num_reads::gpu.shader_cores1.inst           13                       # Number of read requests responded to by this memory
system.mem_ctrls.num_reads::gpu.shader_cores2.data          422                       # Number of read requests responded to by this memory
system.mem_ctrls.num_reads::gpu.shader_cores2.inst           12                       # Number of read requests responded to by this memory
system.mem_ctrls.num_reads::gpu.shader_cores3.data          422                       # Number of read requests responded to by this memory
system.mem_ctrls.num_reads::gpu.shader_cores3.inst           12                       # Number of read requests responded to by this memory
system.mem_ctrls.num_reads::gpu.ce                577                       # Number of read requests responded to by this memory
system.mem_ctrls.num_reads::cpu.inst          6665111                       # Number of read requests responded to by this memory
system.mem_ctrls.num_reads::cpu.data          1297860                       # Number of read requests responded to by this memory
system.mem_ctrls.num_reads::total             7965290                       # Number of read requests responded to by this memory
system.mem_ctrls.num_writes::gpu.shader_cores0.data          314                       # Number of write requests responded to by this memory
system.mem_ctrls.num_writes::gpu.shader_cores1.data          316                       # Number of write requests responded to by this memory
system.mem_ctrls.num_writes::gpu.shader_cores2.data          314                       # Number of write requests responded to by this memory
system.mem_ctrls.num_writes::gpu.shader_cores3.data          314                       # Number of write requests responded to by this memory
system.mem_ctrls.num_writes::gpu.ce               576                       # Number of write requests responded to by this memory
system.mem_ctrls.num_writes::cpu.data          788149                       # Number of write requests responded to by this memory
system.mem_ctrls.num_writes::total             789983                       # Number of write requests responded to by this memory
system.mem_ctrls.bw_read::gpu.shader_cores0.data      2628003                       # Total read bandwidth from this memory (bytes/s)
system.mem_ctrls.bw_read::gpu.shader_cores0.inst        21659                       # Total read bandwidth from this memory (bytes/s)
system.mem_ctrls.bw_read::gpu.shader_cores1.data      2676135                       # Total read bandwidth from this memory (bytes/s)
system.mem_ctrls.bw_read::gpu.shader_cores1.inst        23464                       # Total read bandwidth from this memory (bytes/s)
system.mem_ctrls.bw_read::gpu.shader_cores2.data      2628003                       # Total read bandwidth from this memory (bytes/s)
system.mem_ctrls.bw_read::gpu.shader_cores2.inst        21659                       # Total read bandwidth from this memory (bytes/s)
system.mem_ctrls.bw_read::gpu.shader_cores3.data      2628003                       # Total read bandwidth from this memory (bytes/s)
system.mem_ctrls.bw_read::gpu.shader_cores3.inst        21659                       # Total read bandwidth from this memory (bytes/s)
system.mem_ctrls.bw_read::gpu.ce              5493959                       # Total read bandwidth from this memory (bytes/s)
system.mem_ctrls.bw_read::cpu.inst         4010058370                       # Total read bandwidth from this memory (bytes/s)
system.mem_ctrls.bw_read::cpu.data          599551726                       # Total read bandwidth from this memory (bytes/s)
system.mem_ctrls.bw_read::total            4625752644                       # Total read bandwidth from this memory (bytes/s)
system.mem_ctrls.bw_inst_read::gpu.shader_cores0.inst        21659                       # Instruction read bandwidth from this memory (bytes/s)
system.mem_ctrls.bw_inst_read::gpu.shader_cores1.inst        23464                       # Instruction read bandwidth from this memory (bytes/s)
system.mem_ctrls.bw_inst_read::gpu.shader_cores2.inst        21659                       # Instruction read bandwidth from this memory (bytes/s)
system.mem_ctrls.bw_inst_read::gpu.shader_cores3.inst        21659                       # Instruction read bandwidth from this memory (bytes/s)
system.mem_ctrls.bw_inst_read::cpu.inst    4010058370                       # Instruction read bandwidth from this memory (bytes/s)
system.mem_ctrls.bw_inst_read::total       4010146813                       # Instruction read bandwidth from this memory (bytes/s)
system.mem_ctrls.bw_write::gpu.shader_cores0.data       943386                       # Write bandwidth from this memory (bytes/s)
system.mem_ctrls.bw_write::gpu.shader_cores1.data       953012                       # Write bandwidth from this memory (bytes/s)
system.mem_ctrls.bw_write::gpu.shader_cores2.data       943386                       # Write bandwidth from this memory (bytes/s)
system.mem_ctrls.bw_write::gpu.shader_cores3.data       943386                       # Write bandwidth from this memory (bytes/s)
system.mem_ctrls.bw_write::gpu.ce             5493959                       # Write bandwidth from this memory (bytes/s)
system.mem_ctrls.bw_write::cpu.data         373769045                       # Write bandwidth from this memory (bytes/s)
system.mem_ctrls.bw_write::total            383046174                       # Write bandwidth from this memory (bytes/s)
system.mem_ctrls.bw_total::gpu.shader_cores0.data      3571389                       # Total bandwidth to/from this memory (bytes/s)
system.mem_ctrls.bw_total::gpu.shader_cores0.inst        21659                       # Total bandwidth to/from this memory (bytes/s)
system.mem_ctrls.bw_total::gpu.shader_cores1.data      3629148                       # Total bandwidth to/from this memory (bytes/s)
system.mem_ctrls.bw_total::gpu.shader_cores1.inst        23464                       # Total bandwidth to/from this memory (bytes/s)
system.mem_ctrls.bw_total::gpu.shader_cores2.data      3571389                       # Total bandwidth to/from this memory (bytes/s)
system.mem_ctrls.bw_total::gpu.shader_cores2.inst        21659                       # Total bandwidth to/from this memory (bytes/s)
system.mem_ctrls.bw_total::gpu.shader_cores3.data      3571389                       # Total bandwidth to/from this memory (bytes/s)
system.mem_ctrls.bw_total::gpu.shader_cores3.inst        21659                       # Total bandwidth to/from this memory (bytes/s)
system.mem_ctrls.bw_total::gpu.ce            10987918                       # Total bandwidth to/from this memory (bytes/s)
system.mem_ctrls.bw_total::cpu.inst        4010058370                       # Total bandwidth to/from this memory (bytes/s)
system.mem_ctrls.bw_total::cpu.data         973320771                       # Total bandwidth to/from this memory (bytes/s)
system.mem_ctrls.bw_total::total           5008798818                       # Total bandwidth to/from this memory (bytes/s)
system.ruby_clk_domain.clock                      500                       # Clock period in ticks
system.ruby.outstanding_req_hist::bucket_size            8                      
system.ruby.outstanding_req_hist::max_bucket           79                      
system.ruby.outstanding_req_hist::samples      8755274                      
system.ruby.outstanding_req_hist::mean       1.008781                      
system.ruby.outstanding_req_hist::gmean      1.000903                      
system.ruby.outstanding_req_hist::stdev      0.650786                      
system.ruby.outstanding_req_hist         |     8753260     99.98%     99.98% |         389      0.00%     99.98% |         254      0.00%     99.98% |         382      0.00%     99.99% |          71      0.00%     99.99% |         156      0.00%     99.99% |          57      0.00%     99.99% |          48      0.00%     99.99% |         657      0.01%    100.00% |           0      0.00%    100.00%
system.ruby.outstanding_req_hist::total       8755274                      
system.ruby.latency_hist::bucket_size             256                      
system.ruby.latency_hist::max_bucket             2559                      
system.ruby.latency_hist::samples             8755273                      
system.ruby.latency_hist::mean               2.195172                      
system.ruby.latency_hist::gmean              2.005648                      
system.ruby.latency_hist::stdev             14.444744                      
system.ruby.latency_hist                 |     8754025     99.99%     99.99% |         161      0.00%     99.99% |         160      0.00%     99.99% |         198      0.00%     99.99% |         259      0.00%     99.99% |         246      0.00%    100.00% |         139      0.00%    100.00% |          75      0.00%    100.00% |           8      0.00%    100.00% |           2      0.00%    100.00%
system.ruby.latency_hist::total               8755273                      
system.ruby.hit_latency_hist::bucket_size            2                      
system.ruby.hit_latency_hist::max_bucket           19                      
system.ruby.hit_latency_hist::samples         8752051                      
system.ruby.hit_latency_hist::mean           2.006695                      
system.ruby.hit_latency_hist::gmean          2.001992                      
system.ruby.hit_latency_hist::stdev          0.277293                      
system.ruby.hit_latency_hist             |        2404      0.03%      0.03% |     8744102     99.91%     99.94% |           0      0.00%     99.94% |           0      0.00%     99.94% |           0      0.00%     99.94% |           0      0.00%     99.94% |        5545      0.06%    100.00% |           0      0.00%    100.00% |           0      0.00%    100.00% |           0      0.00%    100.00%
system.ruby.hit_latency_hist::total           8752051                      
system.ruby.miss_latency_hist::bucket_size          256                      
system.ruby.miss_latency_hist::max_bucket         2559                      
system.ruby.miss_latency_hist::samples           3222                      
system.ruby.miss_latency_hist::mean        514.165115                      
system.ruby.miss_latency_hist::gmean       284.810424                      
system.ruby.miss_latency_hist::stdev       551.951811                      
system.ruby.miss_latency_hist            |        1974     61.27%     61.27% |         161      5.00%     66.26% |         160      4.97%     71.23% |         198      6.15%     77.37% |         259      8.04%     85.41% |         246      7.64%     93.05% |         139      4.31%     97.36% |          75      2.33%     99.69% |           8      0.25%     99.94% |           2      0.06%    100.00%
system.ruby.miss_latency_hist::total             3222                      
system.ruby.L1Cache.incomplete_times               21                      
system.ruby.l1_cntrl_ce.L1Dcache.demand_hits            0                       # Number of cache demand hits
system.ruby.l1_cntrl_ce.L1Dcache.demand_misses         1153                       # Number of cache demand misses
system.ruby.l1_cntrl_ce.L1Dcache.demand_accesses         1153                       # Number of cache demand accesses
system.ruby.l1_cntrl_ce.L1Icache.demand_hits            0                       # Number of cache demand hits
system.ruby.l1_cntrl_ce.L1Icache.demand_misses            0                       # Number of cache demand misses
system.ruby.l1_cntrl_ce.L1Icache.demand_accesses            0                       # Number of cache demand accesses
system.ruby.l1_cntrl_ce.L2cache.demand_hits            0                       # Number of cache demand hits
system.ruby.l1_cntrl_ce.L2cache.demand_misses         1153                       # Number of cache demand misses
system.ruby.l1_cntrl_ce.L2cache.demand_accesses         1153                       # Number of cache demand accesses
system.ruby.l1_cntrl_ce.fully_busy_cycles          568                       # cycles for which number of transistions == max transitions
system.ruby.l1_cntrl0.L1Dcache.demand_hits      2084521                       # Number of cache demand hits
system.ruby.l1_cntrl0.L1Dcache.demand_misses         1488                       # Number of cache demand misses
system.ruby.l1_cntrl0.L1Dcache.demand_accesses      2086009                       # Number of cache demand accesses
system.ruby.l1_cntrl0.L1Icache.demand_hits      6659581                       # Number of cache demand hits
system.ruby.l1_cntrl0.L1Icache.demand_misses         5530                       # Number of cache demand misses
system.ruby.l1_cntrl0.L1Icache.demand_accesses      6665111                       # Number of cache demand accesses
system.ruby.l1_cntrl0.L2cache.demand_hits         5545                       # Number of cache demand hits
system.ruby.l1_cntrl0.L2cache.demand_misses         1473                       # Number of cache demand misses
system.ruby.l1_cntrl0.L2cache.demand_accesses         7018                       # Number of cache demand accesses
system.ruby.network.routers0.percent_links_utilized     0.042681                      
system.ruby.network.routers0.msg_count.Request_Control::2         1473                      
system.ruby.network.routers0.msg_count.Request_Control::3            1                      
system.ruby.network.routers0.msg_count.Response_Data::4         1794                      
system.ruby.network.routers0.msg_count.Response_Control::4        10229                      
system.ruby.network.routers0.msg_count.Broadcast_Control::3         1728                      
system.ruby.network.routers0.msg_count.Unblock_Control::5         1473                      
system.ruby.network.routers0.msg_bytes.Request_Control::2        11784                      
system.ruby.network.routers0.msg_bytes.Request_Control::3            8                      
system.ruby.network.routers0.msg_bytes.Response_Data::4       243984                      
system.ruby.network.routers0.msg_bytes.Response_Control::4        81832                      
system.ruby.network.routers0.msg_bytes.Broadcast_Control::3        13824                      
system.ruby.network.routers0.msg_bytes.Unblock_Control::5        11784                      
system.ruby.dir_cntrl0.memBuffer.clk_domain.clock         2500                       # Clock period in ticks
system.ruby.dir_cntrl0.memBuffer.memReq          3332                       # Total number of memory requests
system.ruby.dir_cntrl0.memBuffer.memRead         2398                       # Number of memory reads
system.ruby.dir_cntrl0.memBuffer.memWrite          934                       # Number of memory writes
system.ruby.dir_cntrl0.memBuffer.memRefresh        12185                       # Number of memory refreshes
system.ruby.dir_cntrl0.memBuffer.memWaitCycles        27888                       # Delay stalled at the head of the bank queue
system.ruby.dir_cntrl0.memBuffer.memInputQ         7241                       # Delay in the input queue
system.ruby.dir_cntrl0.memBuffer.memBankQ        25354                       # Delay behind the head of the bank queue
system.ruby.dir_cntrl0.memBuffer.totalStalls        60483                       # Total number of stall cycles
system.ruby.dir_cntrl0.memBuffer.stallsPerReq    18.152161                       # Expected number of stall cycles per request
system.ruby.dir_cntrl0.memBuffer.memBankBusy         4963                       # memory stalls due to busy bank
system.ruby.dir_cntrl0.memBuffer.memBusBusy         8541                       # memory stalls due to busy bus
system.ruby.dir_cntrl0.memBuffer.memReadWriteBusy         1228                       # memory stalls due to read write turnaround
system.ruby.dir_cntrl0.memBuffer.memDataBusBusy         1821                       # memory stalls due to read read turnaround
system.ruby.dir_cntrl0.memBuffer.memArbWait         5699                       # memory stalls due to arbitration
system.ruby.dir_cntrl0.memBuffer.memNotOld         5636                       # memory stalls due to anti starvation
system.ruby.dir_cntrl0.memBuffer.memBankCount |          99      2.97%      2.97% |         100      3.00%      5.97% |          98      2.94%      8.91% |         104      3.12%     12.03% |          95      2.85%     14.89% |         105      3.15%     18.04% |         101      3.03%     21.07% |         104      3.12%     24.19% |         104      3.12%     27.31% |         103      3.09%     30.40% |         109      3.27%     33.67% |         101      3.03%     36.70% |          99      2.97%     39.68% |          97      2.91%     42.59% |         101      3.03%     45.62% |         100      3.00%     48.62% |         106      3.18%     51.80% |         108      3.24%     55.04% |         105      3.15%     58.19% |         110      3.30%     61.49% |         102      3.06%     64.56% |         104      3.12%     67.68% |         111      3.33%     71.01% |         115      3.45%     74.46% |         121      3.63%     78.09% |         114      3.42%     81.51% |         109      3.27%     84.78% |         106      3.18%     87.97% |          98      2.94%     90.91% |          98      2.94%     93.85% |         104      3.12%     96.97% |         101      3.03%    100.00% # Number of accesses per bank
system.ruby.dir_cntrl0.memBuffer.memBankCount::total         3332                       # Number of accesses per bank
system.ruby.dir_cntrl0.probeFilter.demand_hits            0                       # Number of cache demand hits
system.ruby.dir_cntrl0.probeFilter.demand_misses            0                       # Number of cache demand misses
system.ruby.dir_cntrl0.probeFilter.demand_accesses            0                       # Number of cache demand accesses
system.ruby.network.routers1.percent_links_utilized     0.064455                      
system.ruby.network.routers1.msg_count.Request_Control::2         3222                      
system.ruby.network.routers1.msg_count.Request_Control::3           11                      
system.ruby.network.routers1.msg_count.Response_Data::4         2398                      
system.ruby.network.routers1.msg_count.Writeback_Data::5          934                      
system.ruby.network.routers1.msg_count.Writeback_Control::2         1066                      
system.ruby.network.routers1.msg_count.Writeback_Control::3         1066                      
system.ruby.network.routers1.msg_count.Writeback_Control::5          132                      
system.ruby.network.routers1.msg_count.Broadcast_Control::3         3201                      
system.ruby.network.routers1.msg_count.Unblock_Control::5         3222                      
system.ruby.network.routers1.msg_bytes.Request_Control::2        25776                      
system.ruby.network.routers1.msg_bytes.Request_Control::3           88                      
system.ruby.network.routers1.msg_bytes.Response_Data::4       326128                      
system.ruby.network.routers1.msg_bytes.Writeback_Data::5       127024                      
system.ruby.network.routers1.msg_bytes.Writeback_Control::2         8528                      
system.ruby.network.routers1.msg_bytes.Writeback_Control::3         8528                      
system.ruby.network.routers1.msg_bytes.Writeback_Control::5         1056                      
system.ruby.network.routers1.msg_bytes.Broadcast_Control::3        25608                      
system.ruby.network.routers1.msg_bytes.Unblock_Control::5        25776                      
system.ruby.l1_cntrl_sp00.L1Dcache.demand_hits          612                       # Number of cache demand hits
system.ruby.l1_cntrl_sp00.L1Dcache.demand_misses          124                       # Number of cache demand misses
system.ruby.l1_cntrl_sp00.L1Dcache.demand_accesses          736                       # Number of cache demand accesses
system.ruby.l1_cntrl_sp00.L1Icache.demand_hits            0                       # Number of cache demand hits
system.ruby.l1_cntrl_sp00.L1Icache.demand_misses           12                       # Number of cache demand misses
system.ruby.l1_cntrl_sp00.L1Icache.demand_accesses           12                       # Number of cache demand accesses
system.ruby.l1_cntrl_sp00.L2cache.demand_hits            0                       # Number of cache demand hits
system.ruby.l1_cntrl_sp00.L2cache.demand_misses          136                       # Number of cache demand misses
system.ruby.l1_cntrl_sp00.L2cache.demand_accesses          136                       # Number of cache demand accesses
system.ruby.network.routers2.percent_links_utilized     0.010442                      
system.ruby.network.routers2.msg_count.Request_Control::2          136                      
system.ruby.network.routers2.msg_count.Request_Control::3            4                      
system.ruby.network.routers2.msg_count.Response_Data::4          238                      
system.ruby.network.routers2.msg_count.Response_Control::4         3717                      
system.ruby.network.routers2.msg_count.Broadcast_Control::3         3069                      
system.ruby.network.routers2.msg_count.Unblock_Control::5          136                      
system.ruby.network.routers2.msg_bytes.Request_Control::2         1088                      
system.ruby.network.routers2.msg_bytes.Request_Control::3           32                      
system.ruby.network.routers2.msg_bytes.Response_Data::4        32368                      
system.ruby.network.routers2.msg_bytes.Response_Control::4        29736                      
system.ruby.network.routers2.msg_bytes.Broadcast_Control::3        24552                      
system.ruby.network.routers2.msg_bytes.Unblock_Control::5         1088                      
system.ruby.l1_cntrl_sp01.L1Dcache.demand_hits          596                       # Number of cache demand hits
system.ruby.l1_cntrl_sp01.L1Dcache.demand_misses          147                       # Number of cache demand misses
system.ruby.l1_cntrl_sp01.L1Dcache.demand_accesses          743                       # Number of cache demand accesses
system.ruby.l1_cntrl_sp01.L1Icache.demand_hits            0                       # Number of cache demand hits
system.ruby.l1_cntrl_sp01.L1Icache.demand_misses           13                       # Number of cache demand misses
system.ruby.l1_cntrl_sp01.L1Icache.demand_accesses           13                       # Number of cache demand accesses
system.ruby.l1_cntrl_sp01.L2cache.demand_hits            0                       # Number of cache demand hits
system.ruby.l1_cntrl_sp01.L2cache.demand_misses          160                       # Number of cache demand misses
system.ruby.l1_cntrl_sp01.L2cache.demand_accesses          160                       # Number of cache demand accesses
system.ruby.network.routers3.percent_links_utilized     0.010970                      
system.ruby.network.routers3.msg_count.Request_Control::2          160                      
system.ruby.network.routers3.msg_count.Request_Control::3            3                      
system.ruby.network.routers3.msg_count.Response_Data::4          263                      
system.ruby.network.routers3.msg_count.Response_Control::4         3831                      
system.ruby.network.routers3.msg_count.Broadcast_Control::3         3044                      
system.ruby.network.routers3.msg_count.Unblock_Control::5          160                      
system.ruby.network.routers3.msg_bytes.Request_Control::2         1280                      
system.ruby.network.routers3.msg_bytes.Request_Control::3           24                      
system.ruby.network.routers3.msg_bytes.Response_Data::4        35768                      
system.ruby.network.routers3.msg_bytes.Response_Control::4        30648                      
system.ruby.network.routers3.msg_bytes.Broadcast_Control::3        24352                      
system.ruby.network.routers3.msg_bytes.Unblock_Control::5         1280                      
system.ruby.l1_cntrl_sp02.L1Dcache.demand_hits          609                       # Number of cache demand hits
system.ruby.l1_cntrl_sp02.L1Dcache.demand_misses          127                       # Number of cache demand misses
system.ruby.l1_cntrl_sp02.L1Dcache.demand_accesses          736                       # Number of cache demand accesses
system.ruby.l1_cntrl_sp02.L1Icache.demand_hits            0                       # Number of cache demand hits
system.ruby.l1_cntrl_sp02.L1Icache.demand_misses           12                       # Number of cache demand misses
system.ruby.l1_cntrl_sp02.L1Icache.demand_accesses           12                       # Number of cache demand accesses
system.ruby.l1_cntrl_sp02.L2cache.demand_hits            0                       # Number of cache demand hits
system.ruby.l1_cntrl_sp02.L2cache.demand_misses          139                       # Number of cache demand misses
system.ruby.l1_cntrl_sp02.L2cache.demand_accesses          139                       # Number of cache demand accesses
system.ruby.network.routers4.percent_links_utilized     0.010271                      
system.ruby.network.routers4.msg_count.Request_Control::2          139                      
system.ruby.network.routers4.msg_count.Request_Control::3            1                      
system.ruby.network.routers4.msg_count.Response_Data::4          225                      
system.ruby.network.routers4.msg_count.Response_Control::4         3754                      
system.ruby.network.routers4.msg_count.Broadcast_Control::3         3068                      
system.ruby.network.routers4.msg_count.Unblock_Control::5          139                      
system.ruby.network.routers4.msg_bytes.Request_Control::2         1112                      
system.ruby.network.routers4.msg_bytes.Request_Control::3            8                      
system.ruby.network.routers4.msg_bytes.Response_Data::4        30600                      
system.ruby.network.routers4.msg_bytes.Response_Control::4        30032                      
system.ruby.network.routers4.msg_bytes.Broadcast_Control::3        24544                      
system.ruby.network.routers4.msg_bytes.Unblock_Control::5         1112                      
system.ruby.l1_cntrl_sp03.L1Dcache.demand_hits          587                       # Number of cache demand hits
system.ruby.l1_cntrl_sp03.L1Dcache.demand_misses          149                       # Number of cache demand misses
system.ruby.l1_cntrl_sp03.L1Dcache.demand_accesses          736                       # Number of cache demand accesses
system.ruby.l1_cntrl_sp03.L1Icache.demand_hits            0                       # Number of cache demand hits
system.ruby.l1_cntrl_sp03.L1Icache.demand_misses           12                       # Number of cache demand misses
system.ruby.l1_cntrl_sp03.L1Icache.demand_accesses           12                       # Number of cache demand accesses
system.ruby.l1_cntrl_sp03.L2cache.demand_hits            0                       # Number of cache demand hits
system.ruby.l1_cntrl_sp03.L2cache.demand_misses          161                       # Number of cache demand misses
system.ruby.l1_cntrl_sp03.L2cache.demand_accesses          161                       # Number of cache demand accesses
system.ruby.network.routers5.percent_links_utilized     0.010839                      
system.ruby.network.routers5.msg_count.Request_Control::2          161                      
system.ruby.network.routers5.msg_count.Request_Control::3            2                      
system.ruby.network.routers5.msg_count.Response_Data::4          255                      
system.ruby.network.routers5.msg_count.Response_Control::4         3823                      
system.ruby.network.routers5.msg_count.Broadcast_Control::3         3048                      
system.ruby.network.routers5.msg_count.Unblock_Control::5          161                      
system.ruby.network.routers5.msg_bytes.Request_Control::2         1288                      
system.ruby.network.routers5.msg_bytes.Request_Control::3           16                      
system.ruby.network.routers5.msg_bytes.Response_Data::4        34680                      
system.ruby.network.routers5.msg_bytes.Response_Control::4        30584                      
system.ruby.network.routers5.msg_bytes.Broadcast_Control::3        24384                      
system.ruby.network.routers5.msg_bytes.Unblock_Control::5         1288                      
system.ruby.l1_pw_cntrl.L1Dcache.demand_hits            0                       # Number of cache demand hits
system.ruby.l1_pw_cntrl.L1Dcache.demand_misses            0                       # Number of cache demand misses
system.ruby.l1_pw_cntrl.L1Dcache.demand_accesses            0                       # Number of cache demand accesses
system.ruby.l1_pw_cntrl.L1Icache.demand_hits            0                       # Number of cache demand hits
system.ruby.l1_pw_cntrl.L1Icache.demand_misses            0                       # Number of cache demand misses
system.ruby.l1_pw_cntrl.L1Icache.demand_accesses            0                       # Number of cache demand accesses
system.ruby.l1_pw_cntrl.L2cache.demand_hits            0                       # Number of cache demand hits
system.ruby.l1_pw_cntrl.L2cache.demand_misses            0                       # Number of cache demand misses
system.ruby.l1_pw_cntrl.L2cache.demand_accesses            0                       # Number of cache demand accesses
system.ruby.network.routers6.percent_links_utilized     0.006018                      
system.ruby.network.routers6.msg_count.Response_Control::4         3201                      
system.ruby.network.routers6.msg_count.Broadcast_Control::3         3201                      
system.ruby.network.routers6.msg_bytes.Response_Control::4        25608                      
system.ruby.network.routers6.msg_bytes.Broadcast_Control::3        25608                      
system.ruby.network.routers7.percent_links_utilized     0.048215                      
system.ruby.network.routers7.msg_count.Request_Control::2         1153                      
system.ruby.network.routers7.msg_count.Response_Data::4         1205                      
system.ruby.network.routers7.msg_count.Response_Control::4         8307                      
system.ruby.network.routers7.msg_count.Writeback_Data::5          934                      
system.ruby.network.routers7.msg_count.Writeback_Control::2         1066                      
system.ruby.network.routers7.msg_count.Writeback_Control::3         1066                      
system.ruby.network.routers7.msg_count.Writeback_Control::5          132                      
system.ruby.network.routers7.msg_count.Broadcast_Control::3         2048                      
system.ruby.network.routers7.msg_count.Unblock_Control::5         1153                      
system.ruby.network.routers7.msg_bytes.Request_Control::2         9224                      
system.ruby.network.routers7.msg_bytes.Response_Data::4       163880                      
system.ruby.network.routers7.msg_bytes.Response_Control::4        66456                      
system.ruby.network.routers7.msg_bytes.Writeback_Data::5       127024                      
system.ruby.network.routers7.msg_bytes.Writeback_Control::2         8528                      
system.ruby.network.routers7.msg_bytes.Writeback_Control::3         8528                      
system.ruby.network.routers7.msg_bytes.Writeback_Control::5         1056                      
system.ruby.network.routers7.msg_bytes.Broadcast_Control::3        16384                      
system.ruby.network.routers7.msg_bytes.Unblock_Control::5         9224                      
system.ruby.network.routers8.percent_links_utilized     0.027387                      
system.ruby.network.routers8.msg_count.Request_Control::2         3222                      
system.ruby.network.routers8.msg_count.Request_Control::3           11                      
system.ruby.network.routers8.msg_count.Response_Data::4         3194                      
system.ruby.network.routers8.msg_count.Response_Control::4        18431                      
system.ruby.network.routers8.msg_count.Writeback_Data::5          934                      
system.ruby.network.routers8.msg_count.Writeback_Control::2         1066                      
system.ruby.network.routers8.msg_count.Writeback_Control::3         1066                      
system.ruby.network.routers8.msg_count.Writeback_Control::5          132                      
system.ruby.network.routers8.msg_count.Broadcast_Control::3        19206                      
system.ruby.network.routers8.msg_count.Unblock_Control::5         3222                      
system.ruby.network.routers8.msg_bytes.Request_Control::2        25776                      
system.ruby.network.routers8.msg_bytes.Request_Control::3           88                      
system.ruby.network.routers8.msg_bytes.Response_Data::4       434384                      
system.ruby.network.routers8.msg_bytes.Response_Control::4       147448                      
system.ruby.network.routers8.msg_bytes.Writeback_Data::5       127024                      
system.ruby.network.routers8.msg_bytes.Writeback_Control::2         8528                      
system.ruby.network.routers8.msg_bytes.Writeback_Control::3         8528                      
system.ruby.network.routers8.msg_bytes.Writeback_Control::5         1056                      
system.ruby.network.routers8.msg_bytes.Broadcast_Control::3       153648                      
system.ruby.network.routers8.msg_bytes.Unblock_Control::5        25776                      
system.ruby.network.msg_count.Request_Control         9699                      
system.ruby.network.msg_count.Response_Data         9572                      
system.ruby.network.msg_count.Response_Control        55293                      
system.ruby.network.msg_count.Writeback_Data         2802                      
system.ruby.network.msg_count.Writeback_Control         6792                      
system.ruby.network.msg_count.Broadcast_Control        41613                      
system.ruby.network.msg_count.Unblock_Control         9666                      
system.ruby.network.msg_byte.Request_Control        77592                      
system.ruby.network.msg_byte.Response_Data      1301792                      
system.ruby.network.msg_byte.Response_Control       442344                      
system.ruby.network.msg_byte.Writeback_Data       381072                      
system.ruby.network.msg_byte.Writeback_Control        54336                      
system.ruby.network.msg_byte.Broadcast_Control       332904                      
system.ruby.network.msg_byte.Unblock_Control        77328                      
system.ruby.memctrl_clk_domain.clock             1500                       # Clock period in ticks
system.cpu_voltage_domain.voltage                   1                       # Voltage in Volts
system.gpu.voltage_domain.voltage                   1                       # Voltage in Volts
system.gpu.clk_domain.clock                      1429                       # Clock period in ticks
system.gpu.shader_mmu.numPagefaults                 0                       # Number of Pagefaults
system.gpu.shader_mmu.numPagewalks                167                       # Number of Pagewalks
system.gpu.shader_mmu.totalRequests               167                       # Total number of requests
system.gpu.shader_mmu.retryFailures                 0                       # Times the retry walk after a pagefault failed
system.gpu.shader_mmu.l2hits                        0                       # Hits in the shared L2
system.gpu.shader_mmu.prefetchHits                  0                       # Number of prefetch hits
system.gpu.shader_mmu.numPrefetches                 0                       # Number of prefetchs
system.gpu.shader_mmu.prefetchFaults                0                       # Number of faults caused by prefetches
system.gpu.shader_mmu.pagefaultLatency::samples            0                       # Latency to complete the pagefault
system.gpu.shader_mmu.pagefaultLatency::mean          nan                       # Latency to complete the pagefault
system.gpu.shader_mmu.pagefaultLatency::gmean          nan                       # Latency to complete the pagefault
system.gpu.shader_mmu.pagefaultLatency::stdev          nan                       # Latency to complete the pagefault
system.gpu.shader_mmu.pagefaultLatency::0            0                       # Latency to complete the pagefault
system.gpu.shader_mmu.pagefaultLatency::1            0                       # Latency to complete the pagefault
system.gpu.shader_mmu.pagefaultLatency::2            0                       # Latency to complete the pagefault
system.gpu.shader_mmu.pagefaultLatency::3            0                       # Latency to complete the pagefault
system.gpu.shader_mmu.pagefaultLatency::4            0                       # Latency to complete the pagefault
system.gpu.shader_mmu.pagefaultLatency::5            0                       # Latency to complete the pagefault
system.gpu.shader_mmu.pagefaultLatency::6            0                       # Latency to complete the pagefault
system.gpu.shader_mmu.pagefaultLatency::7            0                       # Latency to complete the pagefault
system.gpu.shader_mmu.pagefaultLatency::8            0                       # Latency to complete the pagefault
system.gpu.shader_mmu.pagefaultLatency::9            0                       # Latency to complete the pagefault
system.gpu.shader_mmu.pagefaultLatency::10            0                       # Latency to complete the pagefault
system.gpu.shader_mmu.pagefaultLatency::11            0                       # Latency to complete the pagefault
system.gpu.shader_mmu.pagefaultLatency::12            0                       # Latency to complete the pagefault
system.gpu.shader_mmu.pagefaultLatency::13            0                       # Latency to complete the pagefault
system.gpu.shader_mmu.pagefaultLatency::14            0                       # Latency to complete the pagefault
system.gpu.shader_mmu.pagefaultLatency::15            0                       # Latency to complete the pagefault
system.gpu.shader_mmu.pagefaultLatency::16            0                       # Latency to complete the pagefault
system.gpu.shader_mmu.pagefaultLatency::17            0                       # Latency to complete the pagefault
system.gpu.shader_mmu.pagefaultLatency::18            0                       # Latency to complete the pagefault
system.gpu.shader_mmu.pagefaultLatency::19            0                       # Latency to complete the pagefault
system.gpu.shader_mmu.pagefaultLatency::20            0                       # Latency to complete the pagefault
system.gpu.shader_mmu.pagefaultLatency::21            0                       # Latency to complete the pagefault
system.gpu.shader_mmu.pagefaultLatency::22            0                       # Latency to complete the pagefault
system.gpu.shader_mmu.pagefaultLatency::23            0                       # Latency to complete the pagefault
system.gpu.shader_mmu.pagefaultLatency::24            0                       # Latency to complete the pagefault
system.gpu.shader_mmu.pagefaultLatency::25            0                       # Latency to complete the pagefault
system.gpu.shader_mmu.pagefaultLatency::26            0                       # Latency to complete the pagefault
system.gpu.shader_mmu.pagefaultLatency::27            0                       # Latency to complete the pagefault
system.gpu.shader_mmu.pagefaultLatency::28            0                       # Latency to complete the pagefault
system.gpu.shader_mmu.pagefaultLatency::29            0                       # Latency to complete the pagefault
system.gpu.shader_mmu.pagefaultLatency::30            0                       # Latency to complete the pagefault
system.gpu.shader_mmu.pagefaultLatency::31            0                       # Latency to complete the pagefault
system.gpu.shader_mmu.pagefaultLatency::total            0                       # Latency to complete the pagefault
system.gpu.shader_mmu.concurrentWalks::samples          167                       # Number of outstanding walks
system.gpu.shader_mmu.concurrentWalks::mean            0                       # Number of outstanding walks
system.gpu.shader_mmu.concurrentWalks::gmean            0                       # Number of outstanding walks
system.gpu.shader_mmu.concurrentWalks::stdev            0                       # Number of outstanding walks
system.gpu.shader_mmu.concurrentWalks::0          167    100.00%    100.00% # Number of outstanding walks
system.gpu.shader_mmu.concurrentWalks::1            0      0.00%    100.00% # Number of outstanding walks
system.gpu.shader_mmu.concurrentWalks::2            0      0.00%    100.00% # Number of outstanding walks
system.gpu.shader_mmu.concurrentWalks::3            0      0.00%    100.00% # Number of outstanding walks
system.gpu.shader_mmu.concurrentWalks::4            0      0.00%    100.00% # Number of outstanding walks
system.gpu.shader_mmu.concurrentWalks::5            0      0.00%    100.00% # Number of outstanding walks
system.gpu.shader_mmu.concurrentWalks::6            0      0.00%    100.00% # Number of outstanding walks
system.gpu.shader_mmu.concurrentWalks::7            0      0.00%    100.00% # Number of outstanding walks
system.gpu.shader_mmu.concurrentWalks::8            0      0.00%    100.00% # Number of outstanding walks
system.gpu.shader_mmu.concurrentWalks::9            0      0.00%    100.00% # Number of outstanding walks
system.gpu.shader_mmu.concurrentWalks::10            0      0.00%    100.00% # Number of outstanding walks
system.gpu.shader_mmu.concurrentWalks::11            0      0.00%    100.00% # Number of outstanding walks
system.gpu.shader_mmu.concurrentWalks::12            0      0.00%    100.00% # Number of outstanding walks
system.gpu.shader_mmu.concurrentWalks::13            0      0.00%    100.00% # Number of outstanding walks
system.gpu.shader_mmu.concurrentWalks::14            0      0.00%    100.00% # Number of outstanding walks
system.gpu.shader_mmu.concurrentWalks::15            0      0.00%    100.00% # Number of outstanding walks
system.gpu.shader_mmu.concurrentWalks::total          167                       # Number of outstanding walks
system.gpu.shader_mmu.pagewalkLatency::samples          167                       # Latency to complete the pagewalk
system.gpu.shader_mmu.pagewalkLatency::mean            0                       # Latency to complete the pagewalk
system.gpu.shader_mmu.pagewalkLatency::gmean            0                       # Latency to complete the pagewalk
system.gpu.shader_mmu.pagewalkLatency::stdev            0                       # Latency to complete the pagewalk
system.gpu.shader_mmu.pagewalkLatency::0          167    100.00%    100.00% # Latency to complete the pagewalk
system.gpu.shader_mmu.pagewalkLatency::1            0      0.00%    100.00% # Latency to complete the pagewalk
system.gpu.shader_mmu.pagewalkLatency::2            0      0.00%    100.00% # Latency to complete the pagewalk
system.gpu.shader_mmu.pagewalkLatency::3            0      0.00%    100.00% # Latency to complete the pagewalk
system.gpu.shader_mmu.pagewalkLatency::4            0      0.00%    100.00% # Latency to complete the pagewalk
system.gpu.shader_mmu.pagewalkLatency::5            0      0.00%    100.00% # Latency to complete the pagewalk
system.gpu.shader_mmu.pagewalkLatency::6            0      0.00%    100.00% # Latency to complete the pagewalk
system.gpu.shader_mmu.pagewalkLatency::7            0      0.00%    100.00% # Latency to complete the pagewalk
system.gpu.shader_mmu.pagewalkLatency::8            0      0.00%    100.00% # Latency to complete the pagewalk
system.gpu.shader_mmu.pagewalkLatency::9            0      0.00%    100.00% # Latency to complete the pagewalk
system.gpu.shader_mmu.pagewalkLatency::10            0      0.00%    100.00% # Latency to complete the pagewalk
system.gpu.shader_mmu.pagewalkLatency::11            0      0.00%    100.00% # Latency to complete the pagewalk
system.gpu.shader_mmu.pagewalkLatency::12            0      0.00%    100.00% # Latency to complete the pagewalk
system.gpu.shader_mmu.pagewalkLatency::13            0      0.00%    100.00% # Latency to complete the pagewalk
system.gpu.shader_mmu.pagewalkLatency::14            0      0.00%    100.00% # Latency to complete the pagewalk
system.gpu.shader_mmu.pagewalkLatency::15            0      0.00%    100.00% # Latency to complete the pagewalk
system.gpu.shader_mmu.pagewalkLatency::16            0      0.00%    100.00% # Latency to complete the pagewalk
system.gpu.shader_mmu.pagewalkLatency::17            0      0.00%    100.00% # Latency to complete the pagewalk
system.gpu.shader_mmu.pagewalkLatency::18            0      0.00%    100.00% # Latency to complete the pagewalk
system.gpu.shader_mmu.pagewalkLatency::19            0      0.00%    100.00% # Latency to complete the pagewalk
system.gpu.shader_mmu.pagewalkLatency::20            0      0.00%    100.00% # Latency to complete the pagewalk
system.gpu.shader_mmu.pagewalkLatency::21            0      0.00%    100.00% # Latency to complete the pagewalk
system.gpu.shader_mmu.pagewalkLatency::22            0      0.00%    100.00% # Latency to complete the pagewalk
system.gpu.shader_mmu.pagewalkLatency::23            0      0.00%    100.00% # Latency to complete the pagewalk
system.gpu.shader_mmu.pagewalkLatency::24            0      0.00%    100.00% # Latency to complete the pagewalk
system.gpu.shader_mmu.pagewalkLatency::25            0      0.00%    100.00% # Latency to complete the pagewalk
system.gpu.shader_mmu.pagewalkLatency::26            0      0.00%    100.00% # Latency to complete the pagewalk
system.gpu.shader_mmu.pagewalkLatency::27            0      0.00%    100.00% # Latency to complete the pagewalk
system.gpu.shader_mmu.pagewalkLatency::28            0      0.00%    100.00% # Latency to complete the pagewalk
system.gpu.shader_mmu.pagewalkLatency::29            0      0.00%    100.00% # Latency to complete the pagewalk
system.gpu.shader_mmu.pagewalkLatency::30            0      0.00%    100.00% # Latency to complete the pagewalk
system.gpu.shader_mmu.pagewalkLatency::31            0      0.00%    100.00% # Latency to complete the pagewalk
system.gpu.shader_mmu.pagewalkLatency::total          167                       # Latency to complete the pagewalk
system.gpu.kernels_completed                        2                       # Number of kernels completed
system.gpu.shader_cores0.itb.hits                   0                       # Number of hits in this TLB
system.gpu.shader_cores0.itb.misses                 0                       # Number of misses in this TLB
system.gpu.shader_cores0.itb.hitRate              nan                       # Hit rate for this TLB
system.gpu.shader_cores0.local_loads                0                       # Number of loads from local space
system.gpu.shader_cores0.local_stores               0                       # Number of stores to local space
system.gpu.shader_cores0.shared_loads            5056                       # Number of loads from shared space
system.gpu.shader_cores0.shared_stores           3072                       # Number of stores to shared space
system.gpu.shader_cores0.param_kernel_loads         7296                       # Number of loads from kernel parameter space
system.gpu.shader_cores0.param_local_loads            0                       # Number of loads from local parameter space
system.gpu.shader_cores0.param_local_stores            0                       # Number of stores to local parameter space
system.gpu.shader_cores0.const_loads                0                       # Number of loads from constant space
system.gpu.shader_cores0.tex_loads                  0                       # Number of loads from texture space
system.gpu.shader_cores0.global_loads            8256                       # Number of loads from global space
system.gpu.shader_cores0.global_stores           3136                       # Number of stores to global space
system.gpu.shader_cores0.surf_loads                 0                       # Number of loads from surface space
system.gpu.shader_cores0.generic_loads              0                       # Number of loads from generic spaces (global, shared, local)
system.gpu.shader_cores0.generic_stores             0                       # Number of stores to generic spaces (global, shared, local)
system.gpu.shader_cores0.inst_cache_requests           12                       # Number of instruction cache requests sent
system.gpu.shader_cores0.inst_cache_retries            0                       # Number of instruction cache retries
system.gpu.shader_cores0.inst_counts::0             0                       # Inst counts: 1: ALU, 2: MAD, 3: CTRL, 4: SFU, 5: MEM, 6: TEX, 7: NOP
system.gpu.shader_cores0.inst_counts::1        130176                       # Inst counts: 1: ALU, 2: MAD, 3: CTRL, 4: SFU, 5: MEM, 6: TEX, 7: NOP
system.gpu.shader_cores0.inst_counts::2          2048                       # Inst counts: 1: ALU, 2: MAD, 3: CTRL, 4: SFU, 5: MEM, 6: TEX, 7: NOP
system.gpu.shader_cores0.inst_counts::3         20416                       # Inst counts: 1: ALU, 2: MAD, 3: CTRL, 4: SFU, 5: MEM, 6: TEX, 7: NOP
system.gpu.shader_cores0.inst_counts::4          6144                       # Inst counts: 1: ALU, 2: MAD, 3: CTRL, 4: SFU, 5: MEM, 6: TEX, 7: NOP
system.gpu.shader_cores0.inst_counts::5         26816                       # Inst counts: 1: ALU, 2: MAD, 3: CTRL, 4: SFU, 5: MEM, 6: TEX, 7: NOP
system.gpu.shader_cores0.inst_counts::6             0                       # Inst counts: 1: ALU, 2: MAD, 3: CTRL, 4: SFU, 5: MEM, 6: TEX, 7: NOP
system.gpu.shader_cores0.inst_counts::7             0                       # Inst counts: 1: ALU, 2: MAD, 3: CTRL, 4: SFU, 5: MEM, 6: TEX, 7: NOP
system.gpu.shader_cores0.activeCycles            7415                       # Number of cycles this shader was executing a CTA
system.gpu.shader_cores0.notStalledCycles         5810                       # Number of cycles this shader was actually executing at least one instance
system.gpu.shader_cores0.instInstances         185600                       # Total instructions executed by all PEs in the core
system.gpu.shader_cores0.instPerCycle       25.030344                       # Instruction instances per cycle
system.gpu.shader_cores0.kernels_completed            2                       # Number of kernels completed
system.gpu.shader_cores0.lsq.data_tlb.hits            0                       # Number of hits in this TLB
system.gpu.shader_cores0.lsq.data_tlb.misses            0                       # Number of misses in this TLB
system.gpu.shader_cores0.lsq.data_tlb.hitRate          nan                       # Hit rate for this TLB
system.gpu.shader_cores0.lsq.warpInstBufActive::samples      8949482                       # Histogram of number of active warp inst buffers at a given time
system.gpu.shader_cores0.lsq.warpInstBufActive::mean     5.181637                       # Histogram of number of active warp inst buffers at a given time
system.gpu.shader_cores0.lsq.warpInstBufActive::gmean          nan                       # Histogram of number of active warp inst buffers at a given time
system.gpu.shader_cores0.lsq.warpInstBufActive::stdev     8.378019                       # Histogram of number of active warp inst buffers at a given time
system.gpu.shader_cores0.lsq.warpInstBufActive::0      4215541     47.10%     47.10% # Histogram of number of active warp inst buffers at a given time
system.gpu.shader_cores0.lsq.warpInstBufActive::1       875000      9.78%     56.88% # Histogram of number of active warp inst buffers at a given time
system.gpu.shader_cores0.lsq.warpInstBufActive::2       519826      5.81%     62.69% # Histogram of number of active warp inst buffers at a given time
system.gpu.shader_cores0.lsq.warpInstBufActive::3       289003      3.23%     65.92% # Histogram of number of active warp inst buffers at a given time
system.gpu.shader_cores0.lsq.warpInstBufActive::4       332066      3.71%     69.63% # Histogram of number of active warp inst buffers at a given time
system.gpu.shader_cores0.lsq.warpInstBufActive::5       202883      2.27%     71.90% # Histogram of number of active warp inst buffers at a given time
system.gpu.shader_cores0.lsq.warpInstBufActive::6       244430      2.73%     74.63% # Histogram of number of active warp inst buffers at a given time
system.gpu.shader_cores0.lsq.warpInstBufActive::7       129964      1.45%     76.08% # Histogram of number of active warp inst buffers at a given time
system.gpu.shader_cores0.lsq.warpInstBufActive::8       135262      1.51%     77.59% # Histogram of number of active warp inst buffers at a given time
system.gpu.shader_cores0.lsq.warpInstBufActive::9       166154      1.86%     79.45% # Histogram of number of active warp inst buffers at a given time
system.gpu.shader_cores0.lsq.warpInstBufActive::10        64218      0.72%     80.16% # Histogram of number of active warp inst buffers at a given time
system.gpu.shader_cores0.lsq.warpInstBufActive::11        52351      0.58%     80.75% # Histogram of number of active warp inst buffers at a given time
system.gpu.shader_cores0.lsq.warpInstBufActive::12        90032      1.01%     81.76% # Histogram of number of active warp inst buffers at a given time
system.gpu.shader_cores0.lsq.warpInstBufActive::13        66569      0.74%     82.50% # Histogram of number of active warp inst buffers at a given time
system.gpu.shader_cores0.lsq.warpInstBufActive::14       119491      1.34%     83.83% # Histogram of number of active warp inst buffers at a given time
system.gpu.shader_cores0.lsq.warpInstBufActive::15       152947      1.71%     85.54% # Histogram of number of active warp inst buffers at a given time
system.gpu.shader_cores0.lsq.warpInstBufActive::16       473415      5.29%     90.83% # Histogram of number of active warp inst buffers at a given time
system.gpu.shader_cores0.lsq.warpInstBufActive::17       101249      1.13%     91.97% # Histogram of number of active warp inst buffers at a given time
system.gpu.shader_cores0.lsq.warpInstBufActive::18        48622      0.54%     92.51% # Histogram of number of active warp inst buffers at a given time
system.gpu.shader_cores0.lsq.warpInstBufActive::19        39405      0.44%     92.95% # Histogram of number of active warp inst buffers at a given time
system.gpu.shader_cores0.lsq.warpInstBufActive::20        48904      0.55%     93.50% # Histogram of number of active warp inst buffers at a given time
system.gpu.shader_cores0.lsq.warpInstBufActive::21        37553      0.42%     93.91% # Histogram of number of active warp inst buffers at a given time
system.gpu.shader_cores0.lsq.warpInstBufActive::22        16501      0.18%     94.10% # Histogram of number of active warp inst buffers at a given time
system.gpu.shader_cores0.lsq.warpInstBufActive::23        14473      0.16%     94.26% # Histogram of number of active warp inst buffers at a given time
system.gpu.shader_cores0.lsq.warpInstBufActive::24        14401      0.16%     94.42% # Histogram of number of active warp inst buffers at a given time
system.gpu.shader_cores0.lsq.warpInstBufActive::25        14433      0.16%     94.58% # Histogram of number of active warp inst buffers at a given time
system.gpu.shader_cores0.lsq.warpInstBufActive::26        27107      0.30%     94.89% # Histogram of number of active warp inst buffers at a given time
system.gpu.shader_cores0.lsq.warpInstBufActive::27        19182      0.21%     95.10% # Histogram of number of active warp inst buffers at a given time
system.gpu.shader_cores0.lsq.warpInstBufActive::28        24656      0.28%     95.38% # Histogram of number of active warp inst buffers at a given time
system.gpu.shader_cores0.lsq.warpInstBufActive::29        22356      0.25%     95.63% # Histogram of number of active warp inst buffers at a given time
system.gpu.shader_cores0.lsq.warpInstBufActive::30        34329      0.38%     96.01% # Histogram of number of active warp inst buffers at a given time
system.gpu.shader_cores0.lsq.warpInstBufActive::31        36683      0.41%     96.42% # Histogram of number of active warp inst buffers at a given time
system.gpu.shader_cores0.lsq.warpInstBufActive::32       286712      3.20%     99.62% # Histogram of number of active warp inst buffers at a given time
system.gpu.shader_cores0.lsq.warpInstBufActive::33         9109      0.10%     99.72% # Histogram of number of active warp inst buffers at a given time
system.gpu.shader_cores0.lsq.warpInstBufActive::34         5983      0.07%     99.79% # Histogram of number of active warp inst buffers at a given time
system.gpu.shader_cores0.lsq.warpInstBufActive::35         9357      0.10%     99.90% # Histogram of number of active warp inst buffers at a given time
system.gpu.shader_cores0.lsq.warpInstBufActive::36         4655      0.05%     99.95% # Histogram of number of active warp inst buffers at a given time
system.gpu.shader_cores0.lsq.warpInstBufActive::37         4284      0.05%    100.00% # Histogram of number of active warp inst buffers at a given time
system.gpu.shader_cores0.lsq.warpInstBufActive::38          376      0.00%    100.00% # Histogram of number of active warp inst buffers at a given time
system.gpu.shader_cores0.lsq.warpInstBufActive::39            0      0.00%    100.00% # Histogram of number of active warp inst buffers at a given time
system.gpu.shader_cores0.lsq.warpInstBufActive::40            0      0.00%    100.00% # Histogram of number of active warp inst buffers at a given time
system.gpu.shader_cores0.lsq.warpInstBufActive::41            0      0.00%    100.00% # Histogram of number of active warp inst buffers at a given time
system.gpu.shader_cores0.lsq.warpInstBufActive::42            0      0.00%    100.00% # Histogram of number of active warp inst buffers at a given time
system.gpu.shader_cores0.lsq.warpInstBufActive::43            0      0.00%    100.00% # Histogram of number of active warp inst buffers at a given time
system.gpu.shader_cores0.lsq.warpInstBufActive::44            0      0.00%    100.00% # Histogram of number of active warp inst buffers at a given time
system.gpu.shader_cores0.lsq.warpInstBufActive::45            0      0.00%    100.00% # Histogram of number of active warp inst buffers at a given time
system.gpu.shader_cores0.lsq.warpInstBufActive::46            0      0.00%    100.00% # Histogram of number of active warp inst buffers at a given time
system.gpu.shader_cores0.lsq.warpInstBufActive::47            0      0.00%    100.00% # Histogram of number of active warp inst buffers at a given time
system.gpu.shader_cores0.lsq.warpInstBufActive::48            0      0.00%    100.00% # Histogram of number of active warp inst buffers at a given time
system.gpu.shader_cores0.lsq.warpInstBufActive::49            0      0.00%    100.00% # Histogram of number of active warp inst buffers at a given time
system.gpu.shader_cores0.lsq.warpInstBufActive::50            0      0.00%    100.00% # Histogram of number of active warp inst buffers at a given time
system.gpu.shader_cores0.lsq.warpInstBufActive::51            0      0.00%    100.00% # Histogram of number of active warp inst buffers at a given time
system.gpu.shader_cores0.lsq.warpInstBufActive::52            0      0.00%    100.00% # Histogram of number of active warp inst buffers at a given time
system.gpu.shader_cores0.lsq.warpInstBufActive::53            0      0.00%    100.00% # Histogram of number of active warp inst buffers at a given time
system.gpu.shader_cores0.lsq.warpInstBufActive::54            0      0.00%    100.00% # Histogram of number of active warp inst buffers at a given time
system.gpu.shader_cores0.lsq.warpInstBufActive::55            0      0.00%    100.00% # Histogram of number of active warp inst buffers at a given time
system.gpu.shader_cores0.lsq.warpInstBufActive::56            0      0.00%    100.00% # Histogram of number of active warp inst buffers at a given time
system.gpu.shader_cores0.lsq.warpInstBufActive::57            0      0.00%    100.00% # Histogram of number of active warp inst buffers at a given time
system.gpu.shader_cores0.lsq.warpInstBufActive::58            0      0.00%    100.00% # Histogram of number of active warp inst buffers at a given time
system.gpu.shader_cores0.lsq.warpInstBufActive::59            0      0.00%    100.00% # Histogram of number of active warp inst buffers at a given time
system.gpu.shader_cores0.lsq.warpInstBufActive::60            0      0.00%    100.00% # Histogram of number of active warp inst buffers at a given time
system.gpu.shader_cores0.lsq.warpInstBufActive::61            0      0.00%    100.00% # Histogram of number of active warp inst buffers at a given time
system.gpu.shader_cores0.lsq.warpInstBufActive::62            0      0.00%    100.00% # Histogram of number of active warp inst buffers at a given time
system.gpu.shader_cores0.lsq.warpInstBufActive::63            0      0.00%    100.00% # Histogram of number of active warp inst buffers at a given time
system.gpu.shader_cores0.lsq.warpInstBufActive::64            0      0.00%    100.00% # Histogram of number of active warp inst buffers at a given time
system.gpu.shader_cores0.lsq.warpInstBufActive::total      8949482                       # Histogram of number of active warp inst buffers at a given time
system.gpu.shader_cores0.lsq.cacheAccesses     0.002937                       # Average number of concurrent outstanding cache accesses
system.gpu.shader_cores0.lsq.writebackBlockedCycles            1                       # Number of cycles blocked for core writeback stage
system.gpu.shader_cores0.lsq.mshrHitQueued           70                       # Number of hits on blocked lines in MSHRs
system.gpu.shader_cores0.lsq.mshrsFullCycles            0                       # Number of cycles stalled waiting for an MSHR
system.gpu.shader_cores0.lsq.mshrsFullCount            0                       # Number of times MSHRs filled
system.gpu.shader_cores0.lsq.warpCoalescedAccesses::samples          416                       # Number of coalesced accesses per warp instruction
system.gpu.shader_cores0.lsq.warpCoalescedAccesses::mean     1.769231                       # Number of coalesced accesses per warp instruction
system.gpu.shader_cores0.lsq.warpCoalescedAccesses::gmean     1.601517                       # Number of coalesced accesses per warp instruction
system.gpu.shader_cores0.lsq.warpCoalescedAccesses::stdev     0.782098                       # Number of coalesced accesses per warp instruction
system.gpu.shader_cores0.lsq.warpCoalescedAccesses::0            0      0.00%      0.00% # Number of coalesced accesses per warp instruction
system.gpu.shader_cores0.lsq.warpCoalescedAccesses::1          186     44.71%     44.71% # Number of coalesced accesses per warp instruction
system.gpu.shader_cores0.lsq.warpCoalescedAccesses::2          140     33.65%     78.37% # Number of coalesced accesses per warp instruction
system.gpu.shader_cores0.lsq.warpCoalescedAccesses::3           90     21.63%    100.00% # Number of coalesced accesses per warp instruction
system.gpu.shader_cores0.lsq.warpCoalescedAccesses::4            0      0.00%    100.00% # Number of coalesced accesses per warp instruction
system.gpu.shader_cores0.lsq.warpCoalescedAccesses::5            0      0.00%    100.00% # Number of coalesced accesses per warp instruction
system.gpu.shader_cores0.lsq.warpCoalescedAccesses::6            0      0.00%    100.00% # Number of coalesced accesses per warp instruction
system.gpu.shader_cores0.lsq.warpCoalescedAccesses::7            0      0.00%    100.00% # Number of coalesced accesses per warp instruction
system.gpu.shader_cores0.lsq.warpCoalescedAccesses::8            0      0.00%    100.00% # Number of coalesced accesses per warp instruction
system.gpu.shader_cores0.lsq.warpCoalescedAccesses::9            0      0.00%    100.00% # Number of coalesced accesses per warp instruction
system.gpu.shader_cores0.lsq.warpCoalescedAccesses::10            0      0.00%    100.00% # Number of coalesced accesses per warp instruction
system.gpu.shader_cores0.lsq.warpCoalescedAccesses::11            0      0.00%    100.00% # Number of coalesced accesses per warp instruction
system.gpu.shader_cores0.lsq.warpCoalescedAccesses::12            0      0.00%    100.00% # Number of coalesced accesses per warp instruction
system.gpu.shader_cores0.lsq.warpCoalescedAccesses::13            0      0.00%    100.00% # Number of coalesced accesses per warp instruction
system.gpu.shader_cores0.lsq.warpCoalescedAccesses::14            0      0.00%    100.00% # Number of coalesced accesses per warp instruction
system.gpu.shader_cores0.lsq.warpCoalescedAccesses::15            0      0.00%    100.00% # Number of coalesced accesses per warp instruction
system.gpu.shader_cores0.lsq.warpCoalescedAccesses::16            0      0.00%    100.00% # Number of coalesced accesses per warp instruction
system.gpu.shader_cores0.lsq.warpCoalescedAccesses::17            0      0.00%    100.00% # Number of coalesced accesses per warp instruction
system.gpu.shader_cores0.lsq.warpCoalescedAccesses::18            0      0.00%    100.00% # Number of coalesced accesses per warp instruction
system.gpu.shader_cores0.lsq.warpCoalescedAccesses::19            0      0.00%    100.00% # Number of coalesced accesses per warp instruction
system.gpu.shader_cores0.lsq.warpCoalescedAccesses::20            0      0.00%    100.00% # Number of coalesced accesses per warp instruction
system.gpu.shader_cores0.lsq.warpCoalescedAccesses::21            0      0.00%    100.00% # Number of coalesced accesses per warp instruction
system.gpu.shader_cores0.lsq.warpCoalescedAccesses::22            0      0.00%    100.00% # Number of coalesced accesses per warp instruction
system.gpu.shader_cores0.lsq.warpCoalescedAccesses::23            0      0.00%    100.00% # Number of coalesced accesses per warp instruction
system.gpu.shader_cores0.lsq.warpCoalescedAccesses::24            0      0.00%    100.00% # Number of coalesced accesses per warp instruction
system.gpu.shader_cores0.lsq.warpCoalescedAccesses::25            0      0.00%    100.00% # Number of coalesced accesses per warp instruction
system.gpu.shader_cores0.lsq.warpCoalescedAccesses::26            0      0.00%    100.00% # Number of coalesced accesses per warp instruction
system.gpu.shader_cores0.lsq.warpCoalescedAccesses::27            0      0.00%    100.00% # Number of coalesced accesses per warp instruction
system.gpu.shader_cores0.lsq.warpCoalescedAccesses::28            0      0.00%    100.00% # Number of coalesced accesses per warp instruction
system.gpu.shader_cores0.lsq.warpCoalescedAccesses::29            0      0.00%    100.00% # Number of coalesced accesses per warp instruction
system.gpu.shader_cores0.lsq.warpCoalescedAccesses::30            0      0.00%    100.00% # Number of coalesced accesses per warp instruction
system.gpu.shader_cores0.lsq.warpCoalescedAccesses::31            0      0.00%    100.00% # Number of coalesced accesses per warp instruction
system.gpu.shader_cores0.lsq.warpCoalescedAccesses::32            0      0.00%    100.00% # Number of coalesced accesses per warp instruction
system.gpu.shader_cores0.lsq.warpCoalescedAccesses::total          416                       # Number of coalesced accesses per warp instruction
system.gpu.shader_cores0.lsq.warpLatencyRead::samples          288                       # Latency in cycles for whole warp to finish the read
system.gpu.shader_cores0.lsq.warpLatencyRead::mean    95.736111                       # Latency in cycles for whole warp to finish the read
system.gpu.shader_cores0.lsq.warpLatencyRead::gmean    36.003055                       # Latency in cycles for whole warp to finish the read
system.gpu.shader_cores0.lsq.warpLatencyRead::stdev   159.716517                       # Latency in cycles for whole warp to finish the read
system.gpu.shader_cores0.lsq.warpLatencyRead::0-63          203     70.49%     70.49% # Latency in cycles for whole warp to finish the read
system.gpu.shader_cores0.lsq.warpLatencyRead::64-127           23      7.99%     78.47% # Latency in cycles for whole warp to finish the read
system.gpu.shader_cores0.lsq.warpLatencyRead::128-191           10      3.47%     81.94% # Latency in cycles for whole warp to finish the read
system.gpu.shader_cores0.lsq.warpLatencyRead::192-255           16      5.56%     87.50% # Latency in cycles for whole warp to finish the read
system.gpu.shader_cores0.lsq.warpLatencyRead::256-319            9      3.12%     90.63% # Latency in cycles for whole warp to finish the read
system.gpu.shader_cores0.lsq.warpLatencyRead::320-383            6      2.08%     92.71% # Latency in cycles for whole warp to finish the read
system.gpu.shader_cores0.lsq.warpLatencyRead::384-447            5      1.74%     94.44% # Latency in cycles for whole warp to finish the read
system.gpu.shader_cores0.lsq.warpLatencyRead::448-511            5      1.74%     96.18% # Latency in cycles for whole warp to finish the read
system.gpu.shader_cores0.lsq.warpLatencyRead::512-575            3      1.04%     97.22% # Latency in cycles for whole warp to finish the read
system.gpu.shader_cores0.lsq.warpLatencyRead::576-639            2      0.69%     97.92% # Latency in cycles for whole warp to finish the read
system.gpu.shader_cores0.lsq.warpLatencyRead::640-703            2      0.69%     98.61% # Latency in cycles for whole warp to finish the read
system.gpu.shader_cores0.lsq.warpLatencyRead::704-767            1      0.35%     98.96% # Latency in cycles for whole warp to finish the read
system.gpu.shader_cores0.lsq.warpLatencyRead::768-831            1      0.35%     99.31% # Latency in cycles for whole warp to finish the read
system.gpu.shader_cores0.lsq.warpLatencyRead::832-895            2      0.69%    100.00% # Latency in cycles for whole warp to finish the read
system.gpu.shader_cores0.lsq.warpLatencyRead::896-959            0      0.00%    100.00% # Latency in cycles for whole warp to finish the read
system.gpu.shader_cores0.lsq.warpLatencyRead::960-1023            0      0.00%    100.00% # Latency in cycles for whole warp to finish the read
system.gpu.shader_cores0.lsq.warpLatencyRead::total          288                       # Latency in cycles for whole warp to finish the read
system.gpu.shader_cores0.lsq.warpLatencyWrite::samples          128                       # Latency in cycles for whole warp to finish the write
system.gpu.shader_cores0.lsq.warpLatencyWrite::mean    18.851562                       # Latency in cycles for whole warp to finish the write
system.gpu.shader_cores0.lsq.warpLatencyWrite::gmean    16.918639                       # Latency in cycles for whole warp to finish the write
system.gpu.shader_cores0.lsq.warpLatencyWrite::stdev    11.066791                       # Latency in cycles for whole warp to finish the write
system.gpu.shader_cores0.lsq.warpLatencyWrite::0-7            0      0.00%      0.00% # Latency in cycles for whole warp to finish the write
system.gpu.shader_cores0.lsq.warpLatencyWrite::8-15           68     53.12%     53.12% # Latency in cycles for whole warp to finish the write
system.gpu.shader_cores0.lsq.warpLatencyWrite::16-23           39     30.47%     83.59% # Latency in cycles for whole warp to finish the write
system.gpu.shader_cores0.lsq.warpLatencyWrite::24-31            9      7.03%     90.62% # Latency in cycles for whole warp to finish the write
system.gpu.shader_cores0.lsq.warpLatencyWrite::32-39            2      1.56%     92.19% # Latency in cycles for whole warp to finish the write
system.gpu.shader_cores0.lsq.warpLatencyWrite::40-47            3      2.34%     94.53% # Latency in cycles for whole warp to finish the write
system.gpu.shader_cores0.lsq.warpLatencyWrite::48-55            4      3.12%     97.66% # Latency in cycles for whole warp to finish the write
system.gpu.shader_cores0.lsq.warpLatencyWrite::56-63            2      1.56%     99.22% # Latency in cycles for whole warp to finish the write
system.gpu.shader_cores0.lsq.warpLatencyWrite::64-71            1      0.78%    100.00% # Latency in cycles for whole warp to finish the write
system.gpu.shader_cores0.lsq.warpLatencyWrite::72-79            0      0.00%    100.00% # Latency in cycles for whole warp to finish the write
system.gpu.shader_cores0.lsq.warpLatencyWrite::80-87            0      0.00%    100.00% # Latency in cycles for whole warp to finish the write
system.gpu.shader_cores0.lsq.warpLatencyWrite::88-95            0      0.00%    100.00% # Latency in cycles for whole warp to finish the write
system.gpu.shader_cores0.lsq.warpLatencyWrite::96-103            0      0.00%    100.00% # Latency in cycles for whole warp to finish the write
system.gpu.shader_cores0.lsq.warpLatencyWrite::104-111            0      0.00%    100.00% # Latency in cycles for whole warp to finish the write
system.gpu.shader_cores0.lsq.warpLatencyWrite::112-119            0      0.00%    100.00% # Latency in cycles for whole warp to finish the write
system.gpu.shader_cores0.lsq.warpLatencyWrite::120-127            0      0.00%    100.00% # Latency in cycles for whole warp to finish the write
system.gpu.shader_cores0.lsq.warpLatencyWrite::total          128                       # Latency in cycles for whole warp to finish the write
system.gpu.shader_cores0.lsq.warpLatencyFence::samples          288                       # Latency in cycles for whole warp to finish the fence
system.gpu.shader_cores0.lsq.warpLatencyFence::mean     7.392361                       # Latency in cycles for whole warp to finish the fence
system.gpu.shader_cores0.lsq.warpLatencyFence::gmean     6.942860                       # Latency in cycles for whole warp to finish the fence
system.gpu.shader_cores0.lsq.warpLatencyFence::stdev     3.289018                       # Latency in cycles for whole warp to finish the fence
system.gpu.shader_cores0.lsq.warpLatencyFence::0-1            0      0.00%      0.00% # Latency in cycles for whole warp to finish the fence
system.gpu.shader_cores0.lsq.warpLatencyFence::2-3            0      0.00%      0.00% # Latency in cycles for whole warp to finish the fence
[...]
system.ruby.L1Cache_Controller.MM.Load::total      1136663                      
system.ruby.L1Cache_Controller.MM.Store  |      844687     99.91%     99.91% |         204      0.02%     99.93% |         192      0.02%     99.95% |         204      0.02%     99.98% |         194      0.02%    100.00% |           0      0.00%    100.00% |           0      0.00%    100.00%
system.ruby.L1Cache_Controller.MM.Store::total       845481                      
system.ruby.L1Cache_Controller.MM.L2_Replacement |           0      0.00%      0.00% |           0      0.00%      0.00% |           0      0.00%      0.00% |           0      0.00%      0.00% |           0      0.00%      0.00% |           0      0.00%      0.00% |         504    100.00%    100.00%
system.ruby.L1Cache_Controller.MM.L2_Replacement::total          504                      
system.ruby.L1Cache_Controller.MM.L1_to_L2 |         701     56.31%     56.31% |           0      0.00%     56.31% |           0      0.00%     56.31% |           0      0.00%     56.31% |           0      0.00%     56.31% |           0      0.00%     56.31% |         544     43.69%    100.00%
system.ruby.L1Cache_Controller.MM.L1_to_L2::total         1245                      
system.ruby.L1Cache_Controller.MM.Trigger_L2_to_L1D |         453    100.00%    100.00% |           0      0.00%    100.00% |           0      0.00%    100.00% |           0      0.00%    100.00% |           0      0.00%    100.00% |           0      0.00%    100.00% |           0      0.00%    100.00%
system.ruby.L1Cache_Controller.MM.Trigger_L2_to_L1D::total          453                      
system.ruby.L1Cache_Controller.MM.Other_GETX |           8      4.55%      4.55% |          38     21.59%     26.14% |          43     24.43%     50.57% |          39     22.16%     72.73% |          48     27.27%    100.00% |           0      0.00%    100.00% |           0      0.00%    100.00%
system.ruby.L1Cache_Controller.MM.Other_GETX::total          176                      
system.ruby.L1Cache_Controller.MM.Other_GETS |         285     58.28%     58.28% |          38      7.77%     66.05% |          41      8.38%     74.44% |          37      7.57%     82.00% |          36      7.36%     89.37% |           0      0.00%     89.37% |          52     10.63%    100.00%
system.ruby.L1Cache_Controller.MM.Other_GETS::total          489                      
system.ruby.L1Cache_Controller.MM.Merged_GETS |           0      0.00%      0.00% |           1    100.00%    100.00% |           0      0.00%    100.00% |           0      0.00%    100.00% |           0      0.00%    100.00% |           0      0.00%    100.00% |           0      0.00%    100.00%
system.ruby.L1Cache_Controller.MM.Merged_GETS::total            1                      
system.ruby.L1Cache_Controller.IR.Load   |          44    100.00%    100.00% |           0      0.00%    100.00% |           0      0.00%    100.00% |           0      0.00%    100.00% |           0      0.00%    100.00% |           0      0.00%    100.00% |           0      0.00%    100.00%
system.ruby.L1Cache_Controller.IR.Load::total           44                      
system.ruby.L1Cache_Controller.MR.Load   |          21    100.00%    100.00% |           0      0.00%    100.00% |           0      0.00%    100.00% |           0      0.00%    100.00% |           0      0.00%    100.00% |           0      0.00%    100.00% |           0      0.00%    100.00%
system.ruby.L1Cache_Controller.MR.Load::total           21                      
system.ruby.L1Cache_Controller.MR.Ifetch |        5070    100.00%    100.00% |           0      0.00%    100.00% |           0      0.00%    100.00% |           0      0.00%    100.00% |           0      0.00%    100.00% |           0      0.00%    100.00% |           0      0.00%    100.00%
system.ruby.L1Cache_Controller.MR.Ifetch::total         5070                      
system.ruby.L1Cache_Controller.MR.Store  |           1    100.00%    100.00% |           0      0.00%    100.00% |           0      0.00%    100.00% |           0      0.00%    100.00% |           0      0.00%    100.00% |           0      0.00%    100.00% |           0      0.00%    100.00%
system.ruby.L1Cache_Controller.MR.Store::total            1                      
system.ruby.L1Cache_Controller.MMR.Load  |         432    100.00%    100.00% |           0      0.00%    100.00% |           0      0.00%    100.00% |           0      0.00%    100.00% |           0      0.00%    100.00% |           0      0.00%    100.00% |           0      0.00%    100.00%
system.ruby.L1Cache_Controller.MMR.Load::total          432                      
system.ruby.L1Cache_Controller.MMR.Store |          21    100.00%    100.00% |           0      0.00%    100.00% |           0      0.00%    100.00% |           0      0.00%    100.00% |           0      0.00%    100.00% |           0      0.00%    100.00% |           0      0.00%    100.00%
system.ruby.L1Cache_Controller.MMR.Store::total           21                      
system.ruby.L1Cache_Controller.IM.L1_to_L2 |           0      0.00%      0.00% |           0      0.00%      0.00% |           0      0.00%      0.00% |           0      0.00%      0.00% |           0      0.00%      0.00% |           0      0.00%      0.00% |       20694    100.00%    100.00%
system.ruby.L1Cache_Controller.IM.L1_to_L2::total        20694                      
system.ruby.L1Cache_Controller.IM.Ack    |        4831     60.36%     60.36% |          16      0.20%     60.56% |          46      0.57%     61.13% |          30      0.37%     61.51% |          58      0.72%     62.23% |           0      0.00%     62.23% |        3023     37.77%    100.00%
system.ruby.L1Cache_Controller.IM.Ack::total         8004                      
system.ruby.L1Cache_Controller.IM.Data   |           1     16.67%     16.67% |           0      0.00%     16.67% |           0      0.00%     16.67% |           0      0.00%     16.67% |           0      0.00%     16.67% |           0      0.00%     16.67% |           5     83.33%    100.00%
system.ruby.L1Cache_Controller.IM.Data::total            6                      
system.ruby.L1Cache_Controller.IM.Exclusive_Data |         805     56.89%     56.89% |           3      0.21%     57.10% |          15      1.06%     58.16% |           8      0.57%     58.73% |          13      0.92%     59.65% |           0      0.00%     59.65% |         571     40.35%    100.00%
system.ruby.L1Cache_Controller.IM.Exclusive_Data::total         1415                      
system.ruby.L1Cache_Controller.SM.Ack    |           2      9.52%      9.52% |           3     14.29%     23.81% |           2      9.52%     33.33% |           4     19.05%     52.38% |          10     47.62%    100.00% |           0      0.00%    100.00% |           0      0.00%    100.00%
system.ruby.L1Cache_Controller.SM.Ack::total           21                      
system.ruby.L1Cache_Controller.SM.Data   |           2     25.00%     25.00% |           1     12.50%     37.50% |           1     12.50%     50.00% |           1     12.50%     62.50% |           3     37.50%    100.00% |           0      0.00%    100.00% |           0      0.00%    100.00%
system.ruby.L1Cache_Controller.SM.Data::total            8                      
system.ruby.L1Cache_Controller.OM.Ack    |           0      0.00%      0.00% |          36     21.43%     21.43% |          42     25.00%     46.43% |          30     17.86%     64.29% |          60     35.71%    100.00% |           0      0.00%    100.00% |           0      0.00%    100.00%
system.ruby.L1Cache_Controller.OM.Ack::total          168                      
system.ruby.L1Cache_Controller.OM.All_acks_no_sharers |           0      0.00%      0.00% |           6     21.43%     21.43% |           7     25.00%     46.43% |           5     17.86%     64.29% |          10     35.71%    100.00% |           0      0.00%    100.00% |           0      0.00%    100.00%
system.ruby.L1Cache_Controller.OM.All_acks_no_sharers::total           28                      
system.ruby.L1Cache_Controller.ISM.Ack   |           8     27.59%     27.59% |           2      6.90%     34.48% |           3     10.34%     44.83% |           1      3.45%     48.28% |           5     17.24%     65.52% |           0      0.00%     65.52% |          10     34.48%    100.00%
system.ruby.L1Cache_Controller.ISM.Ack::total           29                      
system.ruby.L1Cache_Controller.ISM.All_acks_no_sharers |           3     21.43%     21.43% |           1      7.14%     28.57% |           1      7.14%     35.71% |           1      7.14%     42.86% |           3     21.43%     64.29% |           0      0.00%     64.29% |           5     35.71%    100.00%
system.ruby.L1Cache_Controller.ISM.All_acks_no_sharers::total           14                      
system.ruby.L1Cache_Controller.M_W.L1_to_L2 |           0      0.00%      0.00% |           0      0.00%      0.00% |           0      0.00%      0.00% |           0      0.00%      0.00% |           0      0.00%      0.00% |           0      0.00%      0.00% |         504    100.00%    100.00%
system.ruby.L1Cache_Controller.M_W.L1_to_L2::total          504                      
system.ruby.L1Cache_Controller.M_W.Ack   |          20      3.67%      3.67% |          40      7.34%     11.01% |          12      2.20%     13.21% |           7      1.28%     14.50% |           9      1.65%     16.15% |           0      0.00%     16.15% |         457     83.85%    100.00%
system.ruby.L1Cache_Controller.M_W.Ack::total          545                      
system.ruby.L1Cache_Controller.M_W.All_acks_no_sharers |         663     39.87%     39.87% |         115      6.92%     46.78% |         111      6.67%     53.46% |         106      6.37%     59.83% |         106      6.37%     66.21% |           0      0.00%     66.21% |         562     33.79%    100.00%
system.ruby.L1Cache_Controller.M_W.All_acks_no_sharers::total         1663                      
system.ruby.L1Cache_Controller.MM_W.Store |           1     11.11%     11.11% |           0      0.00%     11.11% |           6     66.67%     77.78% |           0      0.00%     77.78% |           2     22.22%    100.00% |           0      0.00%    100.00% |           0      0.00%    100.00%
system.ruby.L1Cache_Controller.MM_W.Store::total            9                      
system.ruby.L1Cache_Controller.MM_W.L1_to_L2 |           0      0.00%      0.00% |           0      0.00%      0.00% |           0      0.00%      0.00% |           0      0.00%      0.00% |           0      0.00%      0.00% |           0      0.00%      0.00% |          95    100.00%    100.00%
system.ruby.L1Cache_Controller.MM_W.L1_to_L2::total           95                      
system.ruby.L1Cache_Controller.MM_W.Ack  |           3      0.95%      0.95% |           0      0.00%      0.95% |          29      9.21%     10.16% |          12      3.81%     13.97% |          10      3.17%     17.14% |           0      0.00%     17.14% |         261     82.86%    100.00%
system.ruby.L1Cache_Controller.MM_W.Ack::total          315                      
system.ruby.L1Cache_Controller.MM_W.All_acks_no_sharers |         805     56.89%     56.89% |           3      0.21%     57.10% |          15      1.06%     58.16% |           8      0.57%     58.73% |          13      0.92%     59.65% |           0      0.00%     59.65% |         571     40.35%    100.00%
system.ruby.L1Cache_Controller.MM_W.All_acks_no_sharers::total         1415                      
system.ruby.L1Cache_Controller.IS.L1_to_L2 |           0      0.00%      0.00% |           0      0.00%      0.00% |           0      0.00%      0.00% |           0      0.00%      0.00% |           0      0.00%      0.00% |           0      0.00%      0.00% |       20039    100.00%    100.00%
system.ruby.L1Cache_Controller.IS.L1_to_L2::total        20039                      
system.ruby.L1Cache_Controller.IS.Other_GETS |           0      0.00%      0.00% |           5     25.00%     25.00% |           0      0.00%     25.00% |           7     35.00%     60.00% |           8     40.00%    100.00% |           0      0.00%    100.00% |           0      0.00%    100.00%
system.ruby.L1Cache_Controller.IS.Other_GETS::total           20                      
system.ruby.L1Cache_Controller.IS.Ack    |        3953     43.03%     43.03% |         641      6.98%     50.01% |         710      7.73%     57.74% |         670      7.29%     65.03% |         688      7.49%     72.52% |           0      0.00%     72.52% |        2524     27.48%    100.00%
system.ruby.L1Cache_Controller.IS.Ack::total         9186                      
system.ruby.L1Cache_Controller.IS.Shared_Ack |           3     21.43%     21.43% |           1      7.14%     28.57% |           4     28.57%     57.14% |           2     14.29%     71.43% |           0      0.00%     71.43% |           0      0.00%     71.43% |           4     28.57%    100.00%
system.ruby.L1Cache_Controller.IS.Shared_Ack::total           14                      
system.ruby.L1Cache_Controller.IS.Shared_Data |           2      1.96%      1.96% |          11     10.78%     12.75% |          26     25.49%     38.24% |          19     18.63%     56.86% |          29     28.43%     85.29% |           0      0.00%     85.29% |          15     14.71%    100.00%
system.ruby.L1Cache_Controller.IS.Shared_Data::total          102                      
system.ruby.L1Cache_Controller.IS.Exclusive_Data |         663     39.87%     39.87% |         115      6.92%     46.78% |         111      6.67%     53.46% |         106      6.37%     59.83% |         106      6.37%     66.21% |           0      0.00%     66.21% |         562     33.79%    100.00%
system.ruby.L1Cache_Controller.IS.Exclusive_Data::total         1663                      
system.ruby.L1Cache_Controller.SS.Load   |           0      0.00%      0.00% |           0      0.00%      0.00% |           2     50.00%     50.00% |           0      0.00%     50.00% |           2     50.00%    100.00% |           0      0.00%    100.00% |           0      0.00%    100.00%
system.ruby.L1Cache_Controller.SS.Load::total            4                      
system.ruby.L1Cache_Controller.SS.L1_to_L2 |           0      0.00%      0.00% |           0      0.00%      0.00% |           0      0.00%      0.00% |           0      0.00%      0.00% |           0      0.00%      0.00% |           0      0.00%      0.00% |          29    100.00%    100.00%
system.ruby.L1Cache_Controller.SS.L1_to_L2::total           29                      
system.ruby.L1Cache_Controller.SS.Ack    |           1      0.76%      0.76% |          12      9.16%      9.92% |          40     30.53%     40.46% |          17     12.98%     53.44% |          37     28.24%     81.68% |           0      0.00%     81.68% |          24     18.32%    100.00%
system.ruby.L1Cache_Controller.SS.Ack::total          131                      
system.ruby.L1Cache_Controller.SS.Shared_Ack |           0      0.00%      0.00% |           1      5.56%      5.56% |           6     33.33%     38.89% |           3     16.67%     55.56% |           0      0.00%     55.56% |           0      0.00%     55.56% |           8     44.44%    100.00%
system.ruby.L1Cache_Controller.SS.Shared_Ack::total           18                      
system.ruby.L1Cache_Controller.SS.All_acks |           2      1.96%      1.96% |          11     10.78%     12.75% |          26     25.49%     38.24% |          19     18.63%     56.86% |          29     28.43%     85.29% |           0      0.00%     85.29% |          15     14.71%    100.00%
system.ruby.L1Cache_Controller.SS.All_acks::total          102                      
system.ruby.L1Cache_Controller.MI.Writeback_Ack |           0      0.00%      0.00% |           0      0.00%      0.00% |           0      0.00%      0.00% |           0      0.00%      0.00% |           0      0.00%      0.00% |           0      0.00%      0.00% |        1066    100.00%    100.00%
system.ruby.L1Cache_Controller.MI.Writeback_Ack::total         1066                      
system.ruby.L1Cache_Controller.IT.Complete_L2_to_L1 |          44    100.00%    100.00% |           0      0.00%    100.00% |           0      0.00%    100.00% |           0      0.00%    100.00% |           0      0.00%    100.00% |           0      0.00%    100.00% |           0      0.00%    100.00%
system.ruby.L1Cache_Controller.IT.Complete_L2_to_L1::total           44                      
system.ruby.L1Cache_Controller.MT.Complete_L2_to_L1 |        5092    100.00%    100.00% |           0      0.00%    100.00% |           0      0.00%    100.00% |           0      0.00%    100.00% |           0      0.00%    100.00% |           0      0.00%    100.00% |           0      0.00%    100.00%
system.ruby.L1Cache_Controller.MT.Complete_L2_to_L1::total         5092                      
system.ruby.L1Cache_Controller.MMT.Complete_L2_to_L1 |         453    100.00%    100.00% |           0      0.00%    100.00% |           0      0.00%    100.00% |           0      0.00%    100.00% |           0      0.00%    100.00% |           0      0.00%    100.00% |           0      0.00%    100.00%
system.ruby.L1Cache_Controller.MMT.Complete_L2_to_L1::total          453                      
system.ruby.Directory_Controller.GETX            1458      0.00%      0.00%
system.ruby.Directory_Controller.GETS            1802      0.00%      0.00%
system.ruby.Directory_Controller.PUT             1068      0.00%      0.00%
system.ruby.Directory_Controller.UnblockS          102      0.00%      0.00%
system.ruby.Directory_Controller.UnblockM         3120      0.00%      0.00%
system.ruby.Directory_Controller.Writeback_Exclusive_Clean          132      0.00%      0.00%
system.ruby.Directory_Controller.Writeback_Exclusive_Dirty          934      0.00%      0.00%
system.ruby.Directory_Controller.Memory_Data         2398      0.00%      0.00%
system.ruby.Directory_Controller.Memory_Ack          934      0.00%      0.00%
system.ruby.Directory_Controller.All_Unblocks           11      0.00%      0.00%
system.ruby.Directory_Controller.NX.GETX           42      0.00%      0.00%
system.ruby.Directory_Controller.NX.GETS           23      0.00%      0.00%
system.ruby.Directory_Controller.NO.GETX          191      0.00%      0.00%
system.ruby.Directory_Controller.NO.GETS          547      0.00%      0.00%
system.ruby.Directory_Controller.NO.PUT          1066      0.00%      0.00%
system.ruby.Directory_Controller.E.GETX          1224      0.00%      0.00%
system.ruby.Directory_Controller.E.GETS          1174      0.00%      0.00%
system.ruby.Directory_Controller.NO_B.GETS           11      0.00%      0.00%
system.ruby.Directory_Controller.NO_B.PUT            2      0.00%      0.00%
system.ruby.Directory_Controller.NO_B.UnblockS           73      0.00%      0.00%
system.ruby.Directory_Controller.NO_B.UnblockM         3117      0.00%      0.00%
system.ruby.Directory_Controller.NO_B_S.GETS           10      0.00%      0.00%
system.ruby.Directory_Controller.NO_B_S.UnblockS            8      0.00%      0.00%
system.ruby.Directory_Controller.NO_B_S.UnblockM            3      0.00%      0.00%
system.ruby.Directory_Controller.NO_B_S_W.UnblockS           21      0.00%      0.00%
system.ruby.Directory_Controller.NO_B_S_W.All_Unblocks           11      0.00%      0.00%
system.ruby.Directory_Controller.NO_B_W.GETX            1      0.00%      0.00%
system.ruby.Directory_Controller.NO_B_W.GETS           37      0.00%      0.00%
system.ruby.Directory_Controller.NO_B_W.Memory_Data         2398      0.00%      0.00%
system.ruby.Directory_Controller.WB.Writeback_Exclusive_Clean          132      0.00%      0.00%
system.ruby.Directory_Controller.WB.Writeback_Exclusive_Dirty          934      0.00%      0.00%
system.ruby.Directory_Controller.WB_E_W.Memory_Ack          934      0.00%      0.00%

---------- End Simulation Statistics   ----------
