
---------- Begin Simulation Statistics ----------
sim_seconds                                  0.013310                       # Number of seconds simulated
sim_ticks                                 13309887500                       # Number of ticks simulated
final_tick                                13309887500                       # Number of ticks from beginning of simulation (restored from checkpoints and never reset)
sim_freq                                 1000000000000                       # Frequency of simulated ticks
host_inst_rate                                 105589                       # Simulator instruction rate (inst/s)
host_op_rate                                   201721                       # Simulator op (including micro ops) rate (op/s)
host_tick_rate                              283323752                       # Simulator tick rate (ticks/s)
host_mem_usage                                2412260                       # Number of bytes of host memory used
host_seconds                                    46.98                       # Real time elapsed on the host
sim_insts                                     4960342                       # Number of instructions simulated
sim_ops                                       9476372                       # Number of ops (including micro ops) simulated
system.voltage_domain.voltage                       1                       # Voltage in Volts
system.clk_domain.clock                          1000                       # Clock period in ticks
system.mem_ctrls.bytes_read::gpu.shader_cores0.data        34944                       # Number of bytes read from this memory
system.mem_ctrls.bytes_read::gpu.shader_cores0.inst          288                       # Number of bytes read from this memory
system.mem_ctrls.bytes_read::gpu.shader_cores1.data        35584                       # Number of bytes read from this memory
system.mem_ctrls.bytes_read::gpu.shader_cores1.inst          312                       # Number of bytes read from this memory
system.mem_ctrls.bytes_read::gpu.shader_cores2.data        34944                       # Number of bytes read from this memory
system.mem_ctrls.bytes_read::gpu.shader_cores2.inst          288                       # Number of bytes read from this memory
system.mem_ctrls.bytes_read::gpu.shader_cores3.data        34944                       # Number of bytes read from this memory
system.mem_ctrls.bytes_read::gpu.shader_cores3.inst          288                       # Number of bytes read from this memory
system.mem_ctrls.bytes_read::gpu.ce             73052                       # Number of bytes read from this memory
system.mem_ctrls.bytes_read::cpu.inst        53320888                       # Number of bytes read from this memory
system.mem_ctrls.bytes_read::cpu.data         7972111                       # Number of bytes read from this memory
system.mem_ctrls.bytes_read::total           61507643                       # Number of bytes read from this memory
system.mem_ctrls.bytes_inst_read::gpu.shader_cores0.inst          288                       # Number of instructions bytes read from this memory
system.mem_ctrls.bytes_inst_read::gpu.shader_cores1.inst          312                       # Number of instructions bytes read from this memory
system.mem_ctrls.bytes_inst_read::gpu.shader_cores2.inst          288                       # Number of instructions bytes read from this memory
system.mem_ctrls.bytes_inst_read::gpu.shader_cores3.inst          288                       # Number of instructions bytes read from this memory
system.mem_ctrls.bytes_inst_read::cpu.inst     53320888                       # Number of instructions bytes read from this memory
system.mem_ctrls.bytes_inst_read::total      53322064                       # Number of instructions bytes read from this memory
system.mem_ctrls.bytes_written::gpu.shader_cores0.data        12544                       # Number of bytes written to this memory
system.mem_ctrls.bytes_written::gpu.shader_cores1.data        12672                       # Number of bytes written to this memory
system.mem_ctrls.bytes_written::gpu.shader_cores2.data        12544                       # Number of bytes written to this memory
system.mem_ctrls.bytes_written::gpu.shader_cores3.data        12544                       # Number of bytes written to this memory
system.mem_ctrls.bytes_written::gpu.ce          73052                       # Number of bytes written to this memory
system.mem_ctrls.bytes_written::cpu.data      4969927                       # Number of bytes written to this memory
system.mem_ctrls.bytes_written::total         5093283                       # Number of bytes written to this memory
system.mem_ctrls.num_reads::gpu.shader_cores0.data          422                       # Number of read requests responded to by this memory
system.mem_ctrls.num_reads::gpu.shader_cores0.inst           12                       # Number of read requests responded to by this memory
system.mem_ctrls.num_reads::gpu.shader_cores1.data          427                       # Number of read requests responded to by this memory
system.mem_ctrls.num_reads::gpu.shader_cores1.inst           13                       # Number of read requests responded to by this memory
system.mem_ctrls.num_reads::gpu.shader_cores2.data          422                       # Number of read requests responded to by this memory
system.mem_ctrls.num_reads::gpu.shader_cores2.inst           12                       # Number of read requests responded to by this memory
system.mem_ctrls.num_reads::gpu.shader_cores3.data          422                       # Number of read requests responded to by this memory
system.mem_ctrls.num_reads::gpu.shader_cores3.inst           12                       # Number of read requests responded to by this memory
system.mem_ctrls.num_reads::gpu.ce                577                       # Number of read requests responded to by this memory
system.mem_ctrls.num_reads::cpu.inst          6665111                       # Number of read requests responded to by this memory
system.mem_ctrls.num_reads::cpu.data          1297860                       # Number of read requests responded to by this memory
system.mem_ctrls.num_reads::total             7965290                       # Number of read requests responded to by this memory
system.mem_ctrls.num_writes::gpu.shader_cores0.data          314                       # Number of write requests responded to by this memory
system.mem_ctrls.num_writes::gpu.shader_cores1.data          316                       # Number of write requests responded to by this memory
system.mem_ctrls.num_writes::gpu.shader_cores2.data          314                       # Number of write requests responded to by this memory
system.mem_ctrls.num_writes::gpu.shader_cores3.data          314                       # Number of write requests responded to by this memory
system.mem_ctrls.num_writes::gpu.ce               576                       # Number of write requests responded to by this memory
system.mem_ctrls.num_writes::cpu.data          788149                       # Number of write requests responded to by this memory
system.mem_ctrls.num_writes::total             789983                       # Number of write requests responded to by this memory
system.mem_ctrls.bw_read::gpu.shader_cores0.data      2625417                       # Total read bandwidth from this memory (bytes/s)
system.mem_ctrls.bw_read::gpu.shader_cores0.inst        21638                       # Total read bandwidth from this memory (bytes/s)
system.mem_ctrls.bw_read::gpu.shader_cores1.data      2673501                       # Total read bandwidth from this memory (bytes/s)
system.mem_ctrls.bw_read::gpu.shader_cores1.inst        23441                       # Total read bandwidth from this memory (bytes/s)
system.mem_ctrls.bw_read::gpu.shader_cores2.data      2625417                       # Total read bandwidth from this memory (bytes/s)
system.mem_ctrls.bw_read::gpu.shader_cores2.inst        21638                       # Total read bandwidth from this memory (bytes/s)
system.mem_ctrls.bw_read::gpu.shader_cores3.data      2625417                       # Total read bandwidth from this memory (bytes/s)
system.mem_ctrls.bw_read::gpu.shader_cores3.inst        21638                       # Total read bandwidth from this memory (bytes/s)
system.mem_ctrls.bw_read::gpu.ce              5488551                       # Total read bandwidth from this memory (bytes/s)
system.mem_ctrls.bw_read::cpu.inst         4006111096                       # Total read bandwidth from this memory (bytes/s)
system.mem_ctrls.bw_read::cpu.data          598961561                       # Total read bandwidth from this memory (bytes/s)
system.mem_ctrls.bw_read::total            4621199315                       # Total read bandwidth from this memory (bytes/s)
system.mem_ctrls.bw_inst_read::gpu.shader_cores0.inst        21638                       # Instruction read bandwidth from this memory (bytes/s)
system.mem_ctrls.bw_inst_read::gpu.shader_cores1.inst        23441                       # Instruction read bandwidth from this memory (bytes/s)
system.mem_ctrls.bw_inst_read::gpu.shader_cores2.inst        21638                       # Instruction read bandwidth from this memory (bytes/s)
system.mem_ctrls.bw_inst_read::gpu.shader_cores3.inst        21638                       # Instruction read bandwidth from this memory (bytes/s)
system.mem_ctrls.bw_inst_read::cpu.inst    4006111096                       # Instruction read bandwidth from this memory (bytes/s)
system.mem_ctrls.bw_inst_read::total       4006199451                       # Instruction read bandwidth from this memory (bytes/s)
system.mem_ctrls.bw_write::gpu.shader_cores0.data       942457                       # Write bandwidth from this memory (bytes/s)
system.mem_ctrls.bw_write::gpu.shader_cores1.data       952074                       # Write bandwidth from this memory (bytes/s)
system.mem_ctrls.bw_write::gpu.shader_cores2.data       942457                       # Write bandwidth from this memory (bytes/s)
system.mem_ctrls.bw_write::gpu.shader_cores3.data       942457                       # Write bandwidth from this memory (bytes/s)
system.mem_ctrls.bw_write::gpu.ce             5488551                       # Write bandwidth from this memory (bytes/s)
system.mem_ctrls.bw_write::cpu.data         373401128                       # Write bandwidth from this memory (bytes/s)
system.mem_ctrls.bw_write::total            382669125                       # Write bandwidth from this memory (bytes/s)
system.mem_ctrls.bw_total::gpu.shader_cores0.data      3567874                       # Total bandwidth to/from this memory (bytes/s)
system.mem_ctrls.bw_total::gpu.shader_cores0.inst        21638                       # Total bandwidth to/from this memory (bytes/s)
system.mem_ctrls.bw_total::gpu.shader_cores1.data      3625575                       # Total bandwidth to/from this memory (bytes/s)
system.mem_ctrls.bw_total::gpu.shader_cores1.inst        23441                       # Total bandwidth to/from this memory (bytes/s)
system.mem_ctrls.bw_total::gpu.shader_cores2.data      3567874                       # Total bandwidth to/from this memory (bytes/s)
system.mem_ctrls.bw_total::gpu.shader_cores2.inst        21638                       # Total bandwidth to/from this memory (bytes/s)
system.mem_ctrls.bw_total::gpu.shader_cores3.data      3567874                       # Total bandwidth to/from this memory (bytes/s)
system.mem_ctrls.bw_total::gpu.shader_cores3.inst        21638                       # Total bandwidth to/from this memory (bytes/s)
system.mem_ctrls.bw_total::gpu.ce            10977103                       # Total bandwidth to/from this memory (bytes/s)
system.mem_ctrls.bw_total::cpu.inst        4006111096                       # Total bandwidth to/from this memory (bytes/s)
system.mem_ctrls.bw_total::cpu.data         972362689                       # Total bandwidth to/from this memory (bytes/s)
system.mem_ctrls.bw_total::total           5003868440                       # Total bandwidth to/from this memory (bytes/s)
system.ruby_clk_domain.clock                      500                       # Clock period in ticks
system.ruby.delayHist::bucket_size                  8                       # delay histogram for all message
system.ruby.delayHist::max_bucket                  79                       # delay histogram for all message
system.ruby.delayHist::samples                   1877                       # delay histogram for all message
system.ruby.delayHist::mean                  1.773042                       # delay histogram for all message
system.ruby.delayHist::stdev                 7.417899                       # delay histogram for all message
system.ruby.delayHist                    |        1761     93.82%     93.82% |          48      2.56%     96.38% |          23      1.23%     97.60% |           2      0.11%     97.71% |          12      0.64%     98.35% |           8      0.43%     98.77% |          17      0.91%     99.68% |           4      0.21%     99.89% |           2      0.11%    100.00% |           0      0.00%    100.00% # delay histogram for all message
system.ruby.delayHist::total                     1877                       # delay histogram for all message
system.ruby.outstanding_req_hist::bucket_size            8                      
system.ruby.outstanding_req_hist::max_bucket           79                      
system.ruby.outstanding_req_hist::samples      8755274                      
system.ruby.outstanding_req_hist::mean       1.014645                      
system.ruby.outstanding_req_hist::gmean      1.001433                      
system.ruby.outstanding_req_hist::stdev      0.820391                      
system.ruby.outstanding_req_hist         |     8751966     99.96%     99.96% |         374      0.00%     99.97% |         418      0.00%     99.97% |         486      0.01%     99.98% |         522      0.01%     99.98% |         217      0.00%     99.99% |         431      0.00%     99.99% |         277      0.00%     99.99% |         583      0.01%    100.00% |           0      0.00%    100.00%
system.ruby.outstanding_req_hist::total       8755274                      
system.ruby.latency_hist::bucket_size             512                      
system.ruby.latency_hist::max_bucket             5119                      
system.ruby.latency_hist::samples             8755273                      
system.ruby.latency_hist::mean               2.232709                      
system.ruby.latency_hist::gmean              2.007869                      
system.ruby.latency_hist::stdev             12.677531                      
system.ruby.latency_hist                 |     8753894     99.98%     99.98% |        1094      0.01%    100.00% |         204      0.00%    100.00% |          76      0.00%    100.00% |           4      0.00%    100.00% |           1      0.00%    100.00% |           0      0.00%    100.00% |           0      0.00%    100.00% |           0      0.00%    100.00% |           0      0.00%    100.00%
system.ruby.latency_hist::total               8755273                      
system.ruby.hit_latency_hist::bucket_size          128                      
system.ruby.hit_latency_hist::max_bucket         1279                      
system.ruby.hit_latency_hist::samples         8753181                      
system.ruby.hit_latency_hist::mean           2.140376                      
system.ruby.hit_latency_hist::gmean          2.005567                      
system.ruby.hit_latency_hist::stdev          8.718452                      
system.ruby.hit_latency_hist             |     8750770     99.97%     99.97% |         434      0.00%     99.98% |         656      0.01%     99.98% |         423      0.00%     99.99% |         377      0.00%     99.99% |         181      0.00%    100.00% |         153      0.00%    100.00% |         172      0.00%    100.00% |          14      0.00%    100.00% |           1      0.00%    100.00%
system.ruby.hit_latency_hist::total           8753181                      
system.ruby.miss_latency_hist::bucket_size          512                      
system.ruby.miss_latency_hist::max_bucket         5119                      
system.ruby.miss_latency_hist::samples           2092                      
system.ruby.miss_latency_hist::mean        388.567400                      
system.ruby.miss_latency_hist::gmean       243.880263                      
system.ruby.miss_latency_hist::stdev       453.209493                      
system.ruby.miss_latency_hist            |        1611     77.01%     77.01% |         211     10.09%     87.09% |         189      9.03%     96.13% |          76      3.63%     99.76% |           4      0.19%     99.95% |           1      0.05%    100.00% |           0      0.00%    100.00% |           0      0.00%    100.00% |           0      0.00%    100.00% |           0      0.00%    100.00%
system.ruby.miss_latency_hist::total             2092                      
system.ruby.L1Cache.incomplete_times                1                      
system.ruby.GPUL2Cache.incomplete_times           185                      
system.ruby.Directory.incomplete_times            433                      
system.ruby.l1_cntrl_ce.sequencer.icache.demand_hits            0                       # Number of cache demand hits
system.ruby.l1_cntrl_ce.sequencer.icache.demand_misses            0                       # Number of cache demand misses
system.ruby.l1_cntrl_ce.sequencer.icache.demand_accesses            0                       # Number of cache demand accesses
system.ruby.l1_cntrl0.L1Dcache.demand_hits      2084521                       # Number of cache demand hits
system.ruby.l1_cntrl0.L1Dcache.demand_misses         1488                       # Number of cache demand misses
system.ruby.l1_cntrl0.L1Dcache.demand_accesses      2086009                       # Number of cache demand accesses
system.ruby.l1_cntrl0.L1Icache.demand_hits      6659581                       # Number of cache demand hits
system.ruby.l1_cntrl0.L1Icache.demand_misses         5530                       # Number of cache demand misses
system.ruby.l1_cntrl0.L1Icache.demand_accesses      6665111                       # Number of cache demand accesses
system.ruby.l1_cntrl0.L2cache.demand_hits         5545                       # Number of cache demand hits
system.ruby.l1_cntrl0.L2cache.demand_misses         1473                       # Number of cache demand misses
system.ruby.l1_cntrl0.L2cache.demand_accesses         7018                       # Number of cache demand accesses
system.ruby.network.ext_links0.int_node.percent_links_utilized     0.016231                      
system.ruby.network.ext_links0.int_node.msg_count.Request_Control::2         1915                      
system.ruby.network.ext_links0.int_node.msg_count.Response_Data::1          577                      
system.ruby.network.ext_links0.int_node.msg_count.Response_Data::4         2522                      
system.ruby.network.ext_links0.int_node.msg_count.Response_Control::4         6228                      
system.ruby.network.ext_links0.int_node.msg_count.Writeback_Control::0         1153                      
system.ruby.network.ext_links0.int_node.msg_count.Writeback_Control::1          576                      
system.ruby.network.ext_links0.int_node.msg_count.Broadcast_Control::3         4663                      
system.ruby.network.ext_links0.int_node.msg_count.Unblock_Control::5         1914                      
system.ruby.network.ext_links0.int_node.msg_bytes.Request_Control::2        15320                      
system.ruby.network.ext_links0.int_node.msg_bytes.Response_Data::1        78472                      
system.ruby.network.ext_links0.int_node.msg_bytes.Response_Data::4       342992                      
system.ruby.network.ext_links0.int_node.msg_bytes.Response_Control::4        49824                      
system.ruby.network.ext_links0.int_node.msg_bytes.Writeback_Control::0         9224                      
system.ruby.network.ext_links0.int_node.msg_bytes.Writeback_Control::1         4608                      
system.ruby.network.ext_links0.int_node.msg_bytes.Broadcast_Control::3        37304                      
system.ruby.network.ext_links0.int_node.msg_bytes.Unblock_Control::5        15312                      
system.ruby.network.ext_links1.int_node.percent_links_utilized     0.018423                      
system.ruby.network.ext_links1.int_node.msg_count.Request_Control::2         1473                      
system.ruby.network.ext_links1.int_node.msg_count.Response_Data::4         1793                      
system.ruby.network.ext_links1.int_node.msg_count.Response_Control::4         4212                      
system.ruby.network.ext_links1.int_node.msg_count.Broadcast_Control::3         1595                      
system.ruby.network.ext_links1.int_node.msg_count.Unblock_Control::5         1472                      
system.ruby.network.ext_links1.int_node.msg_bytes.Request_Control::2        11784                      
system.ruby.network.ext_links1.int_node.msg_bytes.Response_Data::4       243848                      
system.ruby.network.ext_links1.int_node.msg_bytes.Response_Control::4        33696                      
system.ruby.network.ext_links1.int_node.msg_bytes.Broadcast_Control::3        12760                      
system.ruby.network.ext_links1.int_node.msg_bytes.Unblock_Control::5        11776                      
system.ruby.l1_cntrl_sp00.cache.demand_hits          283                       # Number of cache demand hits
system.ruby.l1_cntrl_sp00.cache.demand_misses          465                       # Number of cache demand misses
system.ruby.l1_cntrl_sp00.cache.demand_accesses          748                       # Number of cache demand accesses
system.ruby.l1_cntrl_sp00.cache.num_data_array_reads          283                       # number of data array reads
system.ruby.l1_cntrl_sp00.cache.num_data_array_writes          151                       # number of data array writes
system.ruby.l1_cntrl_sp00.cache.num_tag_array_reads          748                       # number of tag array reads
system.ruby.l1_cntrl_sp00.cache.num_tag_array_writes          285                       # number of tag array writes
system.ruby.network.ext_links2.int_node.percent_links_utilized     0.006249                      
system.ruby.network.ext_links2.int_node.msg_count.Control::7          619                      
system.ruby.network.ext_links2.int_node.msg_count.Data::7         1258                      
system.ruby.network.ext_links2.int_node.msg_count.Response_Data::6          619                      
system.ruby.network.ext_links2.int_node.msg_count.Response_Control::4         3068                      
system.ruby.network.ext_links2.int_node.msg_count.Writeback_Control::6         1258                      
system.ruby.network.ext_links2.int_node.msg_count.Broadcast_Control::3         3068                      
system.ruby.network.ext_links2.int_node.msg_bytes.Control::7         4952                      
system.ruby.network.ext_links2.int_node.msg_bytes.Data::7       171088                      
system.ruby.network.ext_links2.int_node.msg_bytes.Response_Data::6        84184                      
system.ruby.network.ext_links2.int_node.msg_bytes.Response_Control::4        24544                      
system.ruby.network.ext_links2.int_node.msg_bytes.Writeback_Control::6        10064                      
system.ruby.network.ext_links2.int_node.msg_bytes.Broadcast_Control::3        24544                      
system.ruby.l1_cntrl_sp01.cache.demand_hits          280                       # Number of cache demand hits
system.ruby.l1_cntrl_sp01.cache.demand_misses          476                       # Number of cache demand misses
system.ruby.l1_cntrl_sp01.cache.demand_accesses          756                       # Number of cache demand accesses
system.ruby.l1_cntrl_sp01.cache.num_data_array_reads          280                       # number of data array reads
system.ruby.l1_cntrl_sp01.cache.num_data_array_writes          160                       # number of data array writes
system.ruby.l1_cntrl_sp01.cache.num_tag_array_reads          756                       # number of tag array reads
system.ruby.l1_cntrl_sp01.cache.num_tag_array_writes          300                       # number of tag array writes
system.ruby.l1_cntrl_sp02.cache.demand_hits          283                       # Number of cache demand hits
system.ruby.l1_cntrl_sp02.cache.demand_misses          465                       # Number of cache demand misses
system.ruby.l1_cntrl_sp02.cache.demand_accesses          748                       # Number of cache demand accesses
system.ruby.l1_cntrl_sp02.cache.num_data_array_reads          283                       # number of data array reads
system.ruby.l1_cntrl_sp02.cache.num_data_array_writes          151                       # number of data array writes
system.ruby.l1_cntrl_sp02.cache.num_tag_array_reads          748                       # number of tag array reads
system.ruby.l1_cntrl_sp02.cache.num_tag_array_writes          285                       # number of tag array writes
system.ruby.l1_cntrl_sp03.cache.demand_hits          277                       # Number of cache demand hits
system.ruby.l1_cntrl_sp03.cache.demand_misses          471                       # Number of cache demand misses
system.ruby.l1_cntrl_sp03.cache.demand_accesses          748                       # Number of cache demand accesses
system.ruby.l1_cntrl_sp03.cache.num_data_array_reads          277                       # number of data array reads
system.ruby.l1_cntrl_sp03.cache.num_data_array_writes          157                       # number of data array writes
system.ruby.l1_cntrl_sp03.cache.num_tag_array_reads          748                       # number of tag array reads
system.ruby.l1_cntrl_sp03.cache.num_tag_array_writes          295                       # number of tag array writes
system.ruby.l2_cntrl0.L2cache.demand_hits         1435                       # Number of cache demand hits
system.ruby.l2_cntrl0.L2cache.demand_misses          442                       # Number of cache demand misses
system.ruby.l2_cntrl0.L2cache.demand_accesses         1877                       # Number of cache demand accesses
system.ruby.l2_cntrl0.L2cache.num_data_array_reads          483                       # number of data array reads
system.ruby.l2_cntrl0.L2cache.num_data_array_writes         1692                       # number of data array writes
system.ruby.l2_cntrl0.L2cache.num_tag_array_reads         4503                       # number of tag array reads
system.ruby.l2_cntrl0.L2cache.num_tag_array_writes         1158                       # number of tag array writes
system.ruby.network.ext_links6.int_node.percent_links_utilized     0.018400                      
system.ruby.network.ext_links6.int_node.msg_count.Control::7          619                      
system.ruby.network.ext_links6.int_node.msg_count.Data::7         1258                      
system.ruby.network.ext_links6.int_node.msg_count.Request_Control::2          442                      
system.ruby.network.ext_links6.int_node.msg_count.Response_Data::4          740                      
system.ruby.network.ext_links6.int_node.msg_count.Response_Data::6          619                      
system.ruby.network.ext_links6.int_node.msg_count.Response_Control::4         5834                      
system.ruby.network.ext_links6.int_node.msg_count.Writeback_Control::6         1258                      
system.ruby.network.ext_links6.int_node.msg_count.Broadcast_Control::3         5694                      
system.ruby.network.ext_links6.int_node.msg_count.Unblock_Control::5          442                      
system.ruby.network.ext_links6.int_node.msg_bytes.Control::7         4952                      
system.ruby.network.ext_links6.int_node.msg_bytes.Data::7       171088                      
system.ruby.network.ext_links6.int_node.msg_bytes.Request_Control::2         3536                      
system.ruby.network.ext_links6.int_node.msg_bytes.Response_Data::4       100640                      
system.ruby.network.ext_links6.int_node.msg_bytes.Response_Data::6        84184                      
system.ruby.network.ext_links6.int_node.msg_bytes.Response_Control::4        46672                      
system.ruby.network.ext_links6.int_node.msg_bytes.Writeback_Control::6        10064                      
system.ruby.network.ext_links6.int_node.msg_bytes.Broadcast_Control::3        45552                      
system.ruby.network.ext_links6.int_node.msg_bytes.Unblock_Control::5         3536                      
system.ruby.l1_pw_cntrl.L1Dcache.demand_hits            0                       # Number of cache demand hits
system.ruby.l1_pw_cntrl.L1Dcache.demand_misses            0                       # Number of cache demand misses
system.ruby.l1_pw_cntrl.L1Dcache.demand_accesses            0                       # Number of cache demand accesses
system.ruby.l1_pw_cntrl.L1Icache.demand_hits            0                       # Number of cache demand hits
system.ruby.l1_pw_cntrl.L1Icache.demand_misses            0                       # Number of cache demand misses
system.ruby.l1_pw_cntrl.L1Icache.demand_accesses            0                       # Number of cache demand accesses
system.ruby.l1_pw_cntrl.L2cache.demand_hits            0                       # Number of cache demand hits
system.ruby.l1_pw_cntrl.L2cache.demand_misses            0                       # Number of cache demand misses
system.ruby.l1_pw_cntrl.L2cache.demand_accesses            0                       # Number of cache demand accesses
system.ruby.dir_cntrl0.memBuffer.clk_domain.clock         2500                       # Clock period in ticks
system.ruby.dir_cntrl0.memBuffer.memReq          2612                       # Total number of memory requests
system.ruby.dir_cntrl0.memBuffer.memRead         2036                       # Number of memory reads
system.ruby.dir_cntrl0.memBuffer.memWrite          576                       # Number of memory writes
system.ruby.dir_cntrl0.memBuffer.memRefresh        12170                       # Number of memory refreshes
system.ruby.dir_cntrl0.memBuffer.memWaitCycles        36590                       # Delay stalled at the head of the bank queue
system.ruby.dir_cntrl0.memBuffer.memInputQ        11917                       # Delay in the input queue
system.ruby.dir_cntrl0.memBuffer.memBankQ        34219                       # Delay behind the head of the bank queue
system.ruby.dir_cntrl0.memBuffer.totalStalls        82726                       # Total number of stall cycles
system.ruby.dir_cntrl0.memBuffer.stallsPerReq    31.671516                       # Expected number of stall cycles per request
system.ruby.dir_cntrl0.memBuffer.memBankBusy         7125                       # memory stalls due to busy bank
system.ruby.dir_cntrl0.memBuffer.memBusBusy        10162                       # memory stalls due to busy bus
system.ruby.dir_cntrl0.memBuffer.memReadWriteBusy          426                       # memory stalls due to read write turnaround
system.ruby.dir_cntrl0.memBuffer.memDataBusBusy         2073                       # memory stalls due to read read turnaround
system.ruby.dir_cntrl0.memBuffer.memArbWait         7470                       # memory stalls due to arbitration
system.ruby.dir_cntrl0.memBuffer.memNotOld         9334                       # memory stalls due to anti starvation
system.ruby.dir_cntrl0.memBuffer.memBankCount |          77      2.95%      2.95% |          82      3.14%      6.09% |          82      3.14%      9.23% |          85      3.25%     12.48% |          79      3.02%     15.51% |          86      3.29%     18.80% |          79      3.02%     21.82% |          82      3.14%     24.96% |          82      3.14%     28.10% |          81      3.10%     31.20% |          83      3.18%     34.38% |          76      2.91%     37.29% |          73      2.79%     40.08% |          74      2.83%     42.92% |          79      3.02%     45.94% |          78      2.99%     48.93% |          84      3.22%     52.14% |          86      3.29%     55.44% |          81      3.10%     58.54% |          86      3.29%     61.83% |          77      2.95%     64.78% |          78      2.99%     67.76% |          85      3.25%     71.02% |          88      3.37%     74.39% |          94      3.60%     77.99% |          86      3.29%     81.28% |          83      3.18%     84.46% |          81      3.10%     87.56% |          79      3.02%     90.58% |          80      3.06%     93.64% |          85      3.25%     96.90% |          81      3.10%    100.00% # Number of accesses per bank
system.ruby.dir_cntrl0.memBuffer.memBankCount::total         2612                       # Number of accesses per bank
system.ruby.dir_cntrl0.probeFilter.demand_hits            0                       # Number of cache demand hits
system.ruby.dir_cntrl0.probeFilter.demand_misses            0                       # Number of cache demand misses
system.ruby.dir_cntrl0.probeFilter.demand_accesses            0                       # Number of cache demand accesses
system.ruby.dir_cntrl0.probeFilter.num_data_array_reads         3068                       # number of data array reads
system.ruby.dir_cntrl0.probeFilter.num_data_array_writes         4962                       # number of data array writes
system.ruby.network.msg_count.Control            1238                      
system.ruby.network.msg_count.Data               2516                      
system.ruby.network.msg_count.Request_Control         3830                      
system.ruby.network.msg_count.Response_Data         6870                      
system.ruby.network.msg_count.Response_Control        19342                      
system.ruby.network.msg_count.Writeback_Control         4245                      
system.ruby.network.msg_count.Broadcast_Control        15020                      
system.ruby.network.msg_count.Unblock_Control         3828                      
system.ruby.network.msg_byte.Control             9904                      
system.ruby.network.msg_byte.Data              342176                      
system.ruby.network.msg_byte.Request_Control        30640                      
system.ruby.network.msg_byte.Response_Data       934320                      
system.ruby.network.msg_byte.Response_Control       154736                      
system.ruby.network.msg_byte.Writeback_Control        33960                      
system.ruby.network.msg_byte.Broadcast_Control       120160                      
system.ruby.network.msg_byte.Unblock_Control        30624                      
system.cpu_voltage_domain.voltage                   1                       # Voltage in Volts
system.gpu.voltage_domain.voltage                   1                       # Voltage in Volts
system.gpu.clk_domain.clock                      1429                       # Clock period in ticks
system.gpu.shader_mmu.numPagefaults                 0                       # Number of Pagefaults
system.gpu.shader_mmu.numPagewalks                168                       # Number of Pagewalks
system.gpu.shader_mmu.totalRequests               168                       # Total number of requests
system.gpu.shader_mmu.retryFailures                 0                       # Times the retry walk after a pagefault failed
system.gpu.shader_mmu.l2hits                        0                       # Hits in the shared L2
system.gpu.shader_mmu.prefetchHits                  0                       # Number of prefetch hits
system.gpu.shader_mmu.numPrefetches                 0                       # Number of prefetchs
system.gpu.shader_mmu.prefetchFaults                0                       # Number of faults caused by prefetches
system.gpu.shader_mmu.pagefaultLatency::samples            0                       # Latency to complete the pagefault
system.gpu.shader_mmu.pagefaultLatency::mean          nan                       # Latency to complete the pagefault
system.gpu.shader_mmu.pagefaultLatency::gmean          nan                       # Latency to complete the pagefault
system.gpu.shader_mmu.pagefaultLatency::stdev          nan                       # Latency to complete the pagefault
system.gpu.shader_mmu.pagefaultLatency::0            0                       # Latency to complete the pagefault
system.gpu.shader_mmu.pagefaultLatency::1            0                       # Latency to complete the pagefault
system.gpu.shader_mmu.pagefaultLatency::2            0                       # Latency to complete the pagefault
system.gpu.shader_mmu.pagefaultLatency::3            0                       # Latency to complete the pagefault
system.gpu.shader_mmu.pagefaultLatency::4            0                       # Latency to complete the pagefault
system.gpu.shader_mmu.pagefaultLatency::5            0                       # Latency to complete the pagefault
system.gpu.shader_mmu.pagefaultLatency::6            0                       # Latency to complete the pagefault
system.gpu.shader_mmu.pagefaultLatency::7            0                       # Latency to complete the pagefault
system.gpu.shader_mmu.pagefaultLatency::8            0                       # Latency to complete the pagefault
system.gpu.shader_mmu.pagefaultLatency::9            0                       # Latency to complete the pagefault
system.gpu.shader_mmu.pagefaultLatency::10            0                       # Latency to complete the pagefault
system.gpu.shader_mmu.pagefaultLatency::11            0                       # Latency to complete the pagefault
system.gpu.shader_mmu.pagefaultLatency::12            0                       # Latency to complete the pagefault
system.gpu.shader_mmu.pagefaultLatency::13            0                       # Latency to complete the pagefault
system.gpu.shader_mmu.pagefaultLatency::14            0                       # Latency to complete the pagefault
system.gpu.shader_mmu.pagefaultLatency::15            0                       # Latency to complete the pagefault
system.gpu.shader_mmu.pagefaultLatency::16            0                       # Latency to complete the pagefault
system.gpu.shader_mmu.pagefaultLatency::17            0                       # Latency to complete the pagefault
system.gpu.shader_mmu.pagefaultLatency::18            0                       # Latency to complete the pagefault
system.gpu.shader_mmu.pagefaultLatency::19            0                       # Latency to complete the pagefault
system.gpu.shader_mmu.pagefaultLatency::20            0                       # Latency to complete the pagefault
system.gpu.shader_mmu.pagefaultLatency::21            0                       # Latency to complete the pagefault
system.gpu.shader_mmu.pagefaultLatency::22            0                       # Latency to complete the pagefault
system.gpu.shader_mmu.pagefaultLatency::23            0                       # Latency to complete the pagefault
system.gpu.shader_mmu.pagefaultLatency::24            0                       # Latency to complete the pagefault
system.gpu.shader_mmu.pagefaultLatency::25            0                       # Latency to complete the pagefault
system.gpu.shader_mmu.pagefaultLatency::26            0                       # Latency to complete the pagefault
system.gpu.shader_mmu.pagefaultLatency::27            0                       # Latency to complete the pagefault
system.gpu.shader_mmu.pagefaultLatency::28            0                       # Latency to complete the pagefault
system.gpu.shader_mmu.pagefaultLatency::29            0                       # Latency to complete the pagefault
system.gpu.shader_mmu.pagefaultLatency::30            0                       # Latency to complete the pagefault
system.gpu.shader_mmu.pagefaultLatency::31            0                       # Latency to complete the pagefault
system.gpu.shader_mmu.pagefaultLatency::total            0                       # Latency to complete the pagefault
system.gpu.shader_mmu.concurrentWalks::samples          168                       # Number of outstanding walks
system.gpu.shader_mmu.concurrentWalks::mean            0                       # Number of outstanding walks
system.gpu.shader_mmu.concurrentWalks::gmean            0                       # Number of outstanding walks
system.gpu.shader_mmu.concurrentWalks::stdev            0                       # Number of outstanding walks
system.gpu.shader_mmu.concurrentWalks::0          168    100.00%    100.00% # Number of outstanding walks
system.gpu.shader_mmu.concurrentWalks::1            0      0.00%    100.00% # Number of outstanding walks
system.gpu.shader_mmu.concurrentWalks::2            0      0.00%    100.00% # Number of outstanding walks
system.gpu.shader_mmu.concurrentWalks::3            0      0.00%    100.00% # Number of outstanding walks
system.gpu.shader_mmu.concurrentWalks::4            0      0.00%    100.00% # Number of outstanding walks
system.gpu.shader_mmu.concurrentWalks::5            0      0.00%    100.00% # Number of outstanding walks
system.gpu.shader_mmu.concurrentWalks::6            0      0.00%    100.00% # Number of outstanding walks
system.gpu.shader_mmu.concurrentWalks::7            0      0.00%    100.00% # Number of outstanding walks
system.gpu.shader_mmu.concurrentWalks::8            0      0.00%    100.00% # Number of outstanding walks
system.gpu.shader_mmu.concurrentWalks::9            0      0.00%    100.00% # Number of outstanding walks
system.gpu.shader_mmu.concurrentWalks::10            0      0.00%    100.00% # Number of outstanding walks
system.gpu.shader_mmu.concurrentWalks::11            0      0.00%    100.00% # Number of outstanding walks
system.gpu.shader_mmu.concurrentWalks::12            0      0.00%    100.00% # Number of outstanding walks
system.gpu.shader_mmu.concurrentWalks::13            0      0.00%    100.00% # Number of outstanding walks
system.gpu.shader_mmu.concurrentWalks::14            0      0.00%    100.00% # Number of outstanding walks
system.gpu.shader_mmu.concurrentWalks::15            0      0.00%    100.00% # Number of outstanding walks
system.gpu.shader_mmu.concurrentWalks::total          168                       # Number of outstanding walks
system.gpu.shader_mmu.pagewalkLatency::samples          168                       # Latency to complete the pagewalk
system.gpu.shader_mmu.pagewalkLatency::mean            0                       # Latency to complete the pagewalk
system.gpu.shader_mmu.pagewalkLatency::gmean            0                       # Latency to complete the pagewalk
system.gpu.shader_mmu.pagewalkLatency::stdev            0                       # Latency to complete the pagewalk
system.gpu.shader_mmu.pagewalkLatency::0          168    100.00%    100.00% # Latency to complete the pagewalk
system.gpu.shader_mmu.pagewalkLatency::1            0      0.00%    100.00% # Latency to complete the pagewalk
system.gpu.shader_mmu.pagewalkLatency::2            0      0.00%    100.00% # Latency to complete the pagewalk
system.gpu.shader_mmu.pagewalkLatency::3            0      0.00%    100.00% # Latency to complete the pagewalk
system.gpu.shader_mmu.pagewalkLatency::4            0      0.00%    100.00% # Latency to complete the pagewalk
system.gpu.shader_mmu.pagewalkLatency::5            0      0.00%    100.00% # Latency to complete the pagewalk
system.gpu.shader_mmu.pagewalkLatency::6            0      0.00%    100.00% # Latency to complete the pagewalk
system.gpu.shader_mmu.pagewalkLatency::7            0      0.00%    100.00% # Latency to complete the pagewalk
system.gpu.shader_mmu.pagewalkLatency::8            0      0.00%    100.00% # Latency to complete the pagewalk
system.gpu.shader_mmu.pagewalkLatency::9            0      0.00%    100.00% # Latency to complete the pagewalk
system.gpu.shader_mmu.pagewalkLatency::10            0      0.00%    100.00% # Latency to complete the pagewalk
system.gpu.shader_mmu.pagewalkLatency::11            0      0.00%    100.00% # Latency to complete the pagewalk
system.gpu.shader_mmu.pagewalkLatency::12            0      0.00%    100.00% # Latency to complete the pagewalk
system.gpu.shader_mmu.pagewalkLatency::13            0      0.00%    100.00% # Latency to complete the pagewalk
system.gpu.shader_mmu.pagewalkLatency::14            0      0.00%    100.00% # Latency to complete the pagewalk
system.gpu.shader_mmu.pagewalkLatency::15            0      0.00%    100.00% # Latency to complete the pagewalk
system.gpu.shader_mmu.pagewalkLatency::16            0      0.00%    100.00% # Latency to complete the pagewalk
system.gpu.shader_mmu.pagewalkLatency::17            0      0.00%    100.00% # Latency to complete the pagewalk
system.gpu.shader_mmu.pagewalkLatency::18            0      0.00%    100.00% # Latency to complete the pagewalk
system.gpu.shader_mmu.pagewalkLatency::19            0      0.00%    100.00% # Latency to complete the pagewalk
system.gpu.shader_mmu.pagewalkLatency::20            0      0.00%    100.00% # Latency to complete the pagewalk
system.gpu.shader_mmu.pagewalkLatency::21            0      0.00%    100.00% # Latency to complete the pagewalk
system.gpu.shader_mmu.pagewalkLatency::22            0      0.00%    100.00% # Latency to complete the pagewalk
system.gpu.shader_mmu.pagewalkLatency::23            0      0.00%    100.00% # Latency to complete the pagewalk
system.gpu.shader_mmu.pagewalkLatency::24            0      0.00%    100.00% # Latency to complete the pagewalk
system.gpu.shader_mmu.pagewalkLatency::25            0      0.00%    100.00% # Latency to complete the pagewalk
system.gpu.shader_mmu.pagewalkLatency::26            0      0.00%    100.00% # Latency to complete the pagewalk
system.gpu.shader_mmu.pagewalkLatency::27            0      0.00%    100.00% # Latency to complete the pagewalk
system.gpu.shader_mmu.pagewalkLatency::28            0      0.00%    100.00% # Latency to complete the pagewalk
system.gpu.shader_mmu.pagewalkLatency::29            0      0.00%    100.00% # Latency to complete the pagewalk
system.gpu.shader_mmu.pagewalkLatency::30            0      0.00%    100.00% # Latency to complete the pagewalk
system.gpu.shader_mmu.pagewalkLatency::31            0      0.00%    100.00% # Latency to complete the pagewalk
system.gpu.shader_mmu.pagewalkLatency::total          168                       # Latency to complete the pagewalk
system.gpu.kernels_completed                        2                       # Number of kernels completed
system.gpu.shader_cores0.itb.hits                   0                       # Number of hits in this TLB
system.gpu.shader_cores0.itb.misses                 0                       # Number of misses in this TLB
system.gpu.shader_cores0.itb.hitRate              nan                       # Hit rate for this TLB
system.gpu.shader_cores0.local_loads                0                       # Number of loads from local space
system.gpu.shader_cores0.local_stores               0                       # Number of stores to local space
system.gpu.shader_cores0.shared_loads            5056                       # Number of loads from shared space
system.gpu.shader_cores0.shared_stores           3072                       # Number of stores to shared space
system.gpu.shader_cores0.param_kernel_loads         7296                       # Number of loads from kernel parameter space
system.gpu.shader_cores0.param_local_loads            0                       # Number of loads from local parameter space
system.gpu.shader_cores0.param_local_stores            0                       # Number of stores to local parameter space
system.gpu.shader_cores0.const_loads                0                       # Number of loads from constant space
system.gpu.shader_cores0.tex_loads                  0                       # Number of loads from texture space
system.gpu.shader_cores0.global_loads            8256                       # Number of loads from global space
system.gpu.shader_cores0.global_stores           3136                       # Number of stores to global space
system.gpu.shader_cores0.surf_loads                 0                       # Number of loads from surface space
system.gpu.shader_cores0.generic_loads              0                       # Number of loads from generic spaces (global, shared, local)
system.gpu.shader_cores0.generic_stores             0                       # Number of stores to generic spaces (global, shared, local)
system.gpu.shader_cores0.inst_cache_requests           12                       # Number of instruction cache requests sent
system.gpu.shader_cores0.inst_cache_retries            0                       # Number of instruction cache retries
system.gpu.shader_cores0.inst_counts::0             0                       # Inst counts: 1: ALU, 2: MAD, 3: CTRL, 4: SFU, 5: MEM, 6: TEX, 7: NOP
system.gpu.shader_cores0.inst_counts::1        130176                       # Inst counts: 1: ALU, 2: MAD, 3: CTRL, 4: SFU, 5: MEM, 6: TEX, 7: NOP
system.gpu.shader_cores0.inst_counts::2          2048                       # Inst counts: 1: ALU, 2: MAD, 3: CTRL, 4: SFU, 5: MEM, 6: TEX, 7: NOP
system.gpu.shader_cores0.inst_counts::3         20416                       # Inst counts: 1: ALU, 2: MAD, 3: CTRL, 4: SFU, 5: MEM, 6: TEX, 7: NOP
system.gpu.shader_cores0.inst_counts::4          6144                       # Inst counts: 1: ALU, 2: MAD, 3: CTRL, 4: SFU, 5: MEM, 6: TEX, 7: NOP
system.gpu.shader_cores0.inst_counts::5         26816                       # Inst counts: 1: ALU, 2: MAD, 3: CTRL, 4: SFU, 5: MEM, 6: TEX, 7: NOP
system.gpu.shader_cores0.inst_counts::6             0                       # Inst counts: 1: ALU, 2: MAD, 3: CTRL, 4: SFU, 5: MEM, 6: TEX, 7: NOP
system.gpu.shader_cores0.inst_counts::7             0                       # Inst counts: 1: ALU, 2: MAD, 3: CTRL, 4: SFU, 5: MEM, 6: TEX, 7: NOP
system.gpu.shader_cores0.activeCycles            9581                       # Number of cycles this shader was executing a CTA
system.gpu.shader_cores0.notStalledCycles         5973                       # Number of cycles this shader was actually executing at least one instance
system.gpu.shader_cores0.instInstances         185600                       # Total instructions executed by all PEs in the core
system.gpu.shader_cores0.instPerCycle       19.371673                       # Instruction instances per cycle
system.gpu.shader_cores0.kernels_completed            2                       # Number of kernels completed
system.gpu.shader_cores0.lsq.data_tlb.hits            0                       # Number of hits in this TLB
system.gpu.shader_cores0.lsq.data_tlb.misses            0                       # Number of misses in this TLB
system.gpu.shader_cores0.lsq.data_tlb.hitRate          nan                       # Hit rate for this TLB
system.gpu.shader_cores0.lsq.warpInstBufActive::samples     13245642                       # Histogram of number of active warp inst buffers at a given time
system.gpu.shader_cores0.lsq.warpInstBufActive::mean    15.434875                       # Histogram of number of active warp inst buffers at a given time
system.gpu.shader_cores0.lsq.warpInstBufActive::gmean          nan                       # Histogram of number of active warp inst buffers at a given time
system.gpu.shader_cores0.lsq.warpInstBufActive::stdev    18.159545                       # Histogram of number of active warp inst buffers at a given time
system.gpu.shader_cores0.lsq.warpInstBufActive::0      4021027     30.36%     30.36% # Histogram of number of active warp inst buffers at a given time
system.gpu.shader_cores0.lsq.warpInstBufActive::1       689466      5.21%     35.56% # Histogram of number of active warp inst buffers at a given time
system.gpu.shader_cores0.lsq.warpInstBufActive::2       294309      2.22%     37.78% # Histogram of number of active warp inst buffers at a given time
system.gpu.shader_cores0.lsq.warpInstBufActive::3       290140      2.19%     39.97% # Histogram of number of active warp inst buffers at a given time
system.gpu.shader_cores0.lsq.warpInstBufActive::4       166139      1.25%     41.23% # Histogram of number of active warp inst buffers at a given time
system.gpu.shader_cores0.lsq.warpInstBufActive::5       222754      1.68%     42.91% # Histogram of number of active warp inst buffers at a given time
system.gpu.shader_cores0.lsq.warpInstBufActive::6       141924      1.07%     43.98% # Histogram of number of active warp inst buffers at a given time
system.gpu.shader_cores0.lsq.warpInstBufActive::7       339269      2.56%     46.54% # Histogram of number of active warp inst buffers at a given time
system.gpu.shader_cores0.lsq.warpInstBufActive::8       585735      4.42%     50.97% # Histogram of number of active warp inst buffers at a given time
system.gpu.shader_cores0.lsq.warpInstBufActive::9       252419      1.91%     52.87% # Histogram of number of active warp inst buffers at a given time
system.gpu.shader_cores0.lsq.warpInstBufActive::10       140940      1.06%     53.94% # Histogram of number of active warp inst buffers at a given time
system.gpu.shader_cores0.lsq.warpInstBufActive::11       145257      1.10%     55.03% # Histogram of number of active warp inst buffers at a given time
system.gpu.shader_cores0.lsq.warpInstBufActive::12       133021      1.00%     56.04% # Histogram of number of active warp inst buffers at a given time
system.gpu.shader_cores0.lsq.warpInstBufActive::13       169744      1.28%     57.32% # Histogram of number of active warp inst buffers at a given time
system.gpu.shader_cores0.lsq.warpInstBufActive::14       127145      0.96%     58.28% # Histogram of number of active warp inst buffers at a given time
system.gpu.shader_cores0.lsq.warpInstBufActive::15       122571      0.93%     59.20% # Histogram of number of active warp inst buffers at a given time
system.gpu.shader_cores0.lsq.warpInstBufActive::16       555636      4.19%     63.40% # Histogram of number of active warp inst buffers at a given time
system.gpu.shader_cores0.lsq.warpInstBufActive::17       147174      1.11%     64.51% # Histogram of number of active warp inst buffers at a given time
system.gpu.shader_cores0.lsq.warpInstBufActive::18       171049      1.29%     65.80% # Histogram of number of active warp inst buffers at a given time
system.gpu.shader_cores0.lsq.warpInstBufActive::19       156197      1.18%     66.98% # Histogram of number of active warp inst buffers at a given time
system.gpu.shader_cores0.lsq.warpInstBufActive::20       145110      1.10%     68.08% # Histogram of number of active warp inst buffers at a given time
system.gpu.shader_cores0.lsq.warpInstBufActive::21       206265      1.56%     69.63% # Histogram of number of active warp inst buffers at a given time
system.gpu.shader_cores0.lsq.warpInstBufActive::22       154242      1.16%     70.80% # Histogram of number of active warp inst buffers at a given time
system.gpu.shader_cores0.lsq.warpInstBufActive::23       142014      1.07%     71.87% # Histogram of number of active warp inst buffers at a given time
system.gpu.shader_cores0.lsq.warpInstBufActive::24       111885      0.84%     72.71% # Histogram of number of active warp inst buffers at a given time
system.gpu.shader_cores0.lsq.warpInstBufActive::25       121701      0.92%     73.63% # Histogram of number of active warp inst buffers at a given time
system.gpu.shader_cores0.lsq.warpInstBufActive::26       203652      1.54%     75.17% # Histogram of number of active warp inst buffers at a given time
system.gpu.shader_cores0.lsq.warpInstBufActive::27       163133      1.23%     76.40% # Histogram of number of active warp inst buffers at a given time
system.gpu.shader_cores0.lsq.warpInstBufActive::28       194000      1.46%     77.87% # Histogram of number of active warp inst buffers at a given time
system.gpu.shader_cores0.lsq.warpInstBufActive::29       201469      1.52%     79.39% # Histogram of number of active warp inst buffers at a given time
system.gpu.shader_cores0.lsq.warpInstBufActive::30       181861      1.37%     80.76% # Histogram of number of active warp inst buffers at a given time
system.gpu.shader_cores0.lsq.warpInstBufActive::31       139255      1.05%     81.81% # Histogram of number of active warp inst buffers at a given time
system.gpu.shader_cores0.lsq.warpInstBufActive::32       980256      7.40%     89.21% # Histogram of number of active warp inst buffers at a given time
system.gpu.shader_cores0.lsq.warpInstBufActive::33         5711      0.04%     89.26% # Histogram of number of active warp inst buffers at a given time
system.gpu.shader_cores0.lsq.warpInstBufActive::34        12852      0.10%     89.35% # Histogram of number of active warp inst buffers at a given time
system.gpu.shader_cores0.lsq.warpInstBufActive::35         7136      0.05%     89.41% # Histogram of number of active warp inst buffers at a given time
system.gpu.shader_cores0.lsq.warpInstBufActive::36        32852      0.25%     89.65% # Histogram of number of active warp inst buffers at a given time
system.gpu.shader_cores0.lsq.warpInstBufActive::37         5710      0.04%     89.70% # Histogram of number of active warp inst buffers at a given time
system.gpu.shader_cores0.lsq.warpInstBufActive::38        12853      0.10%     89.79% # Histogram of number of active warp inst buffers at a given time
system.gpu.shader_cores0.lsq.warpInstBufActive::39         5711      0.04%     89.84% # Histogram of number of active warp inst buffers at a given time
system.gpu.shader_cores0.lsq.warpInstBufActive::40        57114      0.43%     90.27% # Histogram of number of active warp inst buffers at a given time
system.gpu.shader_cores0.lsq.warpInstBufActive::41        34290      0.26%     90.53% # Histogram of number of active warp inst buffers at a given time
system.gpu.shader_cores0.lsq.warpInstBufActive::42        22856      0.17%     90.70% # Histogram of number of active warp inst buffers at a given time
system.gpu.shader_cores0.lsq.warpInstBufActive::43         5710      0.04%     90.74% # Histogram of number of active warp inst buffers at a given time
system.gpu.shader_cores0.lsq.warpInstBufActive::44        38566      0.29%     91.03% # Histogram of number of active warp inst buffers at a given time
system.gpu.shader_cores0.lsq.warpInstBufActive::45         9998      0.08%     91.11% # Histogram of number of active warp inst buffers at a given time
system.gpu.shader_cores0.lsq.warpInstBufActive::46        11421      0.09%     91.20% # Histogram of number of active warp inst buffers at a given time
system.gpu.shader_cores0.lsq.warpInstBufActive::47        39998      0.30%     91.50% # Histogram of number of active warp inst buffers at a given time
system.gpu.shader_cores0.lsq.warpInstBufActive::48        87997      0.66%     92.16% # Histogram of number of active warp inst buffers at a given time
system.gpu.shader_cores0.lsq.warpInstBufActive::49        15716      0.12%     92.28% # Histogram of number of active warp inst buffers at a given time
system.gpu.shader_cores0.lsq.warpInstBufActive::50         8571      0.06%     92.35% # Histogram of number of active warp inst buffers at a given time
system.gpu.shader_cores0.lsq.warpInstBufActive::51         2856      0.02%     92.37% # Histogram of number of active warp inst buffers at a given time
system.gpu.shader_cores0.lsq.warpInstBufActive::52         5714      0.04%     92.41% # Histogram of number of active warp inst buffers at a given time
system.gpu.shader_cores0.lsq.warpInstBufActive::53        17145      0.13%     92.54% # Histogram of number of active warp inst buffers at a given time
system.gpu.shader_cores0.lsq.warpInstBufActive::54         2855      0.02%     92.56% # Histogram of number of active warp inst buffers at a given time
system.gpu.shader_cores0.lsq.warpInstBufActive::55        24291      0.18%     92.75% # Histogram of number of active warp inst buffers at a given time
system.gpu.shader_cores0.lsq.warpInstBufActive::56         2856      0.02%     92.77% # Histogram of number of active warp inst buffers at a given time
system.gpu.shader_cores0.lsq.warpInstBufActive::57        13355      0.10%     92.87% # Histogram of number of active warp inst buffers at a given time
system.gpu.shader_cores0.lsq.warpInstBufActive::58        49069      0.37%     93.24% # Histogram of number of active warp inst buffers at a given time
system.gpu.shader_cores0.lsq.warpInstBufActive::59        36248      0.27%     93.51% # Histogram of number of active warp inst buffers at a given time
system.gpu.shader_cores0.lsq.warpInstBufActive::60        37270      0.28%     93.79% # Histogram of number of active warp inst buffers at a given time
system.gpu.shader_cores0.lsq.warpInstBufActive::61        65460      0.49%     94.29% # Histogram of number of active warp inst buffers at a given time
system.gpu.shader_cores0.lsq.warpInstBufActive::62       208581      1.57%     95.86% # Histogram of number of active warp inst buffers at a given time
system.gpu.shader_cores0.lsq.warpInstBufActive::63       109086      0.82%     96.69% # Histogram of number of active warp inst buffers at a given time
system.gpu.shader_cores0.lsq.warpInstBufActive::64       439035      3.31%    100.00% # Histogram of number of active warp inst buffers at a given time
system.gpu.shader_cores0.lsq.warpInstBufActive::total     13245642                       # Histogram of number of active warp inst buffers at a given time
system.gpu.shader_cores0.lsq.cacheAccesses     0.010936                       # Average number of concurrent outstanding cache accesses
system.gpu.shader_cores0.lsq.writebackBlockedCycles            0                       # Number of cycles blocked for core writeback stage
system.gpu.shader_cores0.lsq.mshrHitQueued          331                       # Number of hits on blocked lines in MSHRs
system.gpu.shader_cores0.lsq.mshrsFullCycles            0                       # Number of cycles stalled waiting for an MSHR
system.gpu.shader_cores0.lsq.mshrsFullCount            0                       # Number of times MSHRs filled
system.gpu.shader_cores0.lsq.warpCoalescedAccesses::samples          416                       # Number of coalesced accesses per warp instruction
system.gpu.shader_cores0.lsq.warpCoalescedAccesses::mean     1.769231                       # Number of coalesced accesses per warp instruction
system.gpu.shader_cores0.lsq.warpCoalescedAccesses::gmean     1.601517                       # Number of coalesced accesses per warp instruction
system.gpu.shader_cores0.lsq.warpCoalescedAccesses::stdev     0.782098                       # Number of coalesced accesses per warp instruction
system.gpu.shader_cores0.lsq.warpCoalescedAccesses::0            0      0.00%      0.00% # Number of coalesced accesses per warp instruction
system.gpu.shader_cores0.lsq.warpCoalescedAccesses::1          186     44.71%     44.71% # Number of coalesced accesses per warp instruction
system.gpu.shader_cores0.lsq.warpCoalescedAccesses::2          140     33.65%     78.37% # Number of coalesced accesses per warp instruction
system.gpu.shader_cores0.lsq.warpCoalescedAccesses::3           90     21.63%    100.00% # Number of coalesced accesses per warp instruction
system.gpu.shader_cores0.lsq.warpCoalescedAccesses::4            0      0.00%    100.00% # Number of coalesced accesses per warp instruction
system.gpu.shader_cores0.lsq.warpCoalescedAccesses::5            0      0.00%    100.00% # Number of coalesced accesses per warp instruction
system.gpu.shader_cores0.lsq.warpCoalescedAccesses::6            0      0.00%    100.00% # Number of coalesced accesses per warp instruction
system.gpu.shader_cores0.lsq.warpCoalescedAccesses::7            0      0.00%    100.00% # Number of coalesced accesses per warp instruction
system.gpu.shader_cores0.lsq.warpCoalescedAccesses::8            0      0.00%    100.00% # Number of coalesced accesses per warp instruction
system.gpu.shader_cores0.lsq.warpCoalescedAccesses::9            0      0.00%    100.00% # Number of coalesced accesses per warp instruction
system.gpu.shader_cores0.lsq.warpCoalescedAccesses::10            0      0.00%    100.00% # Number of coalesced accesses per warp instruction
system.gpu.shader_cores0.lsq.warpCoalescedAccesses::11            0      0.00%    100.00% # Number of coalesced accesses per warp instruction
system.gpu.shader_cores0.lsq.warpCoalescedAccesses::12            0      0.00%    100.00% # Number of coalesced accesses per warp instruction
system.gpu.shader_cores0.lsq.warpCoalescedAccesses::13            0      0.00%    100.00% # Number of coalesced accesses per warp instruction
system.gpu.shader_cores0.lsq.warpCoalescedAccesses::14            0      0.00%    100.00% # Number of coalesced accesses per warp instruction
system.gpu.shader_cores0.lsq.warpCoalescedAccesses::15            0      0.00%    100.00% # Number of coalesced accesses per warp instruction
system.gpu.shader_cores0.lsq.warpCoalescedAccesses::16            0      0.00%    100.00% # Number of coalesced accesses per warp instruction
system.gpu.shader_cores0.lsq.warpCoalescedAccesses::17            0      0.00%    100.00% # Number of coalesced accesses per warp instruction
system.gpu.shader_cores0.lsq.warpCoalescedAccesses::18            0      0.00%    100.00% # Number of coalesced accesses per warp instruction
system.gpu.shader_cores0.lsq.warpCoalescedAccesses::19            0      0.00%    100.00% # Number of coalesced accesses per warp instruction
system.gpu.shader_cores0.lsq.warpCoalescedAccesses::20            0      0.00%    100.00% # Number of coalesced accesses per warp instruction
system.gpu.shader_cores0.lsq.warpCoalescedAccesses::21            0      0.00%    100.00% # Number of coalesced accesses per warp instruction
system.gpu.shader_cores0.lsq.warpCoalescedAccesses::22            0      0.00%    100.00% # Number of coalesced accesses per warp instruction
system.gpu.shader_cores0.lsq.warpCoalescedAccesses::23            0      0.00%    100.00% # Number of coalesced accesses per warp instruction
system.gpu.shader_cores0.lsq.warpCoalescedAccesses::24            0      0.00%    100.00% # Number of coalesced accesses per warp instruction
system.gpu.shader_cores0.lsq.warpCoalescedAccesses::25            0      0.00%    100.00% # Number of coalesced accesses per warp instruction
system.gpu.shader_cores0.lsq.warpCoalescedAccesses::26            0      0.00%    100.00% # Number of coalesced accesses per warp instruction
system.gpu.shader_cores0.lsq.warpCoalescedAccesses::27            0      0.00%    100.00% # Number of coalesced accesses per warp instruction
system.gpu.shader_cores0.lsq.warpCoalescedAccesses::28            0      0.00%    100.00% # Number of coalesced accesses per warp instruction
system.gpu.shader_cores0.lsq.warpCoalescedAccesses::29            0      0.00%    100.00% # Number of coalesced accesses per warp instruction
system.gpu.shader_cores0.lsq.warpCoalescedAccesses::30            0      0.00%    100.00% # Number of coalesced accesses per warp instruction
system.gpu.shader_cores0.lsq.warpCoalescedAccesses::31            0      0.00%    100.00% # Number of coalesced accesses per warp instruction
system.gpu.shader_cores0.lsq.warpCoalescedAccesses::32            0      0.00%    100.00% # Number of coalesced accesses per warp instruction
system.gpu.shader_cores0.lsq.warpCoalescedAccesses::total          416                       # Number of coalesced accesses per warp instruction
system.gpu.shader_cores0.lsq.warpLatencyRead::samples          288                       # Latency in cycles for whole warp to finish the read
system.gpu.shader_cores0.lsq.warpLatencyRead::mean   225.902778                       # Latency in cycles for whole warp to finish the read
system.gpu.shader_cores0.lsq.warpLatencyRead::gmean    82.573605                       # Latency in cycles for whole warp to finish the read
system.gpu.shader_cores0.lsq.warpLatencyRead::stdev   256.264313                       # Latency in cycles for whole warp to finish the read
system.gpu.shader_cores0.lsq.warpLatencyRead::0-63          122     42.36%     42.36% # Latency in cycles for whole warp to finish the read
system.gpu.shader_cores0.lsq.warpLatencyRead::64-127           18      6.25%     48.61% # Latency in cycles for whole warp to finish the read
system.gpu.shader_cores0.lsq.warpLatencyRead::128-191           29     10.07%     58.68% # Latency in cycles for whole warp to finish the read
system.gpu.shader_cores0.lsq.warpLatencyRead::192-255           23      7.99%     66.67% # Latency in cycles for whole warp to finish the read
system.gpu.shader_cores0.lsq.warpLatencyRead::256-319           14      4.86%     71.53% # Latency in cycles for whole warp to finish the read
system.gpu.shader_cores0.lsq.warpLatencyRead::320-383            8      2.78%     74.31% # Latency in cycles for whole warp to finish the read
system.gpu.shader_cores0.lsq.warpLatencyRead::384-447            9      3.12%     77.43% # Latency in cycles for whole warp to finish the read
system.gpu.shader_cores0.lsq.warpLatencyRead::448-511           22      7.64%     85.07% # Latency in cycles for whole warp to finish the read
system.gpu.shader_cores0.lsq.warpLatencyRead::512-575           15      5.21%     90.28% # Latency in cycles for whole warp to finish the read
system.gpu.shader_cores0.lsq.warpLatencyRead::576-639            6      2.08%     92.36% # Latency in cycles for whole warp to finish the read
system.gpu.shader_cores0.lsq.warpLatencyRead::640-703            3      1.04%     93.40% # Latency in cycles for whole warp to finish the read
system.gpu.shader_cores0.lsq.warpLatencyRead::704-767            5      1.74%     95.14% # Latency in cycles for whole warp to finish the read
system.gpu.shader_cores0.lsq.warpLatencyRead::768-831            0      0.00%     95.14% # Latency in cycles for whole warp to finish the read
system.gpu.shader_cores0.lsq.warpLatencyRead::832-895            3      1.04%     96.18% # Latency in cycles for whole warp to finish the read
system.gpu.shader_cores0.lsq.warpLatencyRead::896-959            9      3.12%     99.31% # Latency in cycles for whole warp to finish the read
system.gpu.shader_cores0.lsq.warpLatencyRead::960-1023            2      0.69%    100.00% # Latency in cycles for whole warp to finish the read
system.gpu.shader_cores0.lsq.warpLatencyRead::total          288                       # Latency in cycles for whole warp to finish the read
system.gpu.shader_cores0.lsq.warpLatencyWrite::samples          128                       # Latency in cycles for whole warp to finish the write
system.gpu.shader_cores0.lsq.warpLatencyWrite::mean   448.210938                       # Latency in cycles for whole warp to finish the write
system.gpu.shader_cores0.lsq.warpLatencyWrite::gmean   377.496166                       # Latency in cycles for whole warp to finish the write
system.gpu.shader_cores0.lsq.warpLatencyWrite::stdev   260.208961                       # Latency in cycles for whole warp to finish the write
system.gpu.shader_cores0.lsq.warpLatencyWrite::0-127            0      0.00%      0.00% # Latency in cycles for whole warp to finish the write
system.gpu.shader_cores0.lsq.warpLatencyWrite::128-255           49     38.28%     38.28% # Latency in cycles for whole warp to finish the write
system.gpu.shader_cores0.lsq.warpLatencyWrite::256-383           15     11.72%     50.00% # Latency in cycles for whole warp to finish the write
system.gpu.shader_cores0.lsq.warpLatencyWrite::384-511           14     10.94%     60.94% # Latency in cycles for whole warp to finish the write
system.gpu.shader_cores0.lsq.warpLatencyWrite::512-639           20     15.62%     76.56% # Latency in cycles for whole warp to finish the write
system.gpu.shader_cores0.lsq.warpLatencyWrite::640-767           14     10.94%     87.50% # Latency in cycles for whole warp to finish the write
system.gpu.shader_cores0.lsq.warpLatencyWrite::768-895            7      5.47%     92.97% # Latency in cycles for whole warp to finish the write
system.gpu.shader_cores0.lsq.warpLatencyWrite::896-1023            5      3.91%     96.88% # Latency in cycles for whole warp to finish the write
system.gpu.shader_cores0.lsq.warpLatencyWrite::1024-1151            3      2.34%     99.22% # Latency in cycles for whole warp to finish the write
system.gpu.shader_cores0.lsq.warpLatencyWrite::1152-1279            1      0.78%    100.00% # Latency in cycles for whole warp to finish the write
system.gpu.shader_cores0.lsq.warpLatencyWrite::1280-1407            0      0.00%    100.00% # Latency in cycles for whole warp to finish the write
system.gpu.shader_cores0.lsq.warpLatencyWrite::1408-1535            0      0.00%    100.00% # Latency in cycles for whole warp to finish the write
system.gpu.shader_cores0.lsq.warpLatencyWrite::1536-1663            0      0.00%    100.00% # Latency in cycles for whole warp to finish the write
system.gpu.shader_cores0.lsq.warpLatencyWrite::1664-1791            0      0.00%    100.00% # Latency in cycles for whole warp to finish the write
system.gpu.shader_cores0.lsq.warpLatencyWrite::1792-1919            0      0.00%    100.00% # Latency in cycles for whole warp to finish the write
system.gpu.shader_cores0.lsq.warpLatencyWrite::1920-2047            0      0.00%    100.00% # Latency in cycles for whole warp to finish the write
system.gpu.shader_cores0.lsq.warpLatencyWrite::total          128                       # Latency in cycles for whole warp to finish the write
system.gpu.shader_cores0.lsq.warpLatencyFence::samples          288                       # Latency in cycles for whole warp to finish the fence
system.gpu.shader_cores0.lsq.warpLatencyFence::mean    70.472222                       # Latency in cycles for whole warp to finish the fence
system.gpu.shader_cores0.lsq.warpLatencyFence::gmean    13.881831                       # Latency in cycles for whole warp to finish the fence
system.gpu.shader_cores0.lsq.warpLatencyFence::stdev   144.862518                       # Latency in cycles for whole warp to finish the fence
system.gpu.shader_cores0.lsq.warpLatencyFence::0-63          224     77.78%     77.78% # Latency in cycles for whole warp to finish the fence
system.gpu.shader_cores0.lsq.warpLatencyFence::64-127            0      0.00%     77.78% # Latency in cycles for whole warp to finish the fence
system.gpu.shader_cores0.lsq.warpLatencyFence::128-191           22      7.64%     85.42% # Latency in cycles for whole warp to finish the fence
system.gpu.shader_cores0.lsq.warpLatencyFence::192-255           24      8.33%     93.75% # Latency in cycles for whole warp to finish the fence
system.gpu.shader_cores0.lsq.warpLatencyFence::256-319            0      0.00%     93.75% # Latency in cycles for whole warp to finish the fence
system.gpu.shader_cores0.lsq.warpLatencyFence::320-383            0      0.00%     93.75% # Latency in cycles for whole warp to finish the fence
system.gpu.shader_cores0.lsq.warpLatencyFence::384-447            1      0.35%     94.10% # Latency in cycles for whole warp to finish the fence
system.gpu.shader_cores0.lsq.warpLatencyFence::448-511            3      1.04%     95.14% # Latency in cycles for whole warp to finish the fence
system.gpu.shader_cores0.lsq.warpLatencyFence::512-575            5      1.74%     96.88% # Latency in cycles for whole warp to finish the fence
system.gpu.shader_cores0.lsq.warpLatencyFence::576-639            9      3.12%    100.00% # Latency in cycles for whole warp to finish the fence
system.gpu.shader_cores0.lsq.warpLatencyFence::640-703            0      0.00%    100.00% # Latency in cycles for whole warp to finish the fence
system.gpu.shader_cores0.lsq.warpLatencyFence::704-767            0      0.00%    100.00% # Latency in cycles for whole warp to finish the fence
system.gpu.shader_cores0.lsq.warpLatencyFence::768-831            0      0.00%    100.00% # Latency in cycles for whole warp to finish the fence
system.gpu.shader_cores0.lsq.warpLatencyFence::832-895            0      0.00%    100.00% # Latency in cycles for whole warp to finish the fence
system.gpu.shader_cores0.lsq.warpLatencyFence::896-959            0      0.00%    100.00% # Latency in cycles for whole warp to finish the fence
system.gpu.shader_cores0.lsq.warpLatencyFence::960-1023            0      0.00%    100.00% # Latency in cycles for whole warp to finish the fence
system.gpu.shader_cores0.lsq.warpLatencyFence::total          288                       # Latency in cycles for whole warp to finish the fence
system.gpu.shader_cores0.lsq.tlbMissLatency::samples            0                       # Latency in cycles for TLB miss
system.gpu.shader_cores0.lsq.tlbMissLatency::mean          nan                       # Latency in cycles for TLB miss
system.gpu.shader_cores0.lsq.tlbMissLatency::gmean          nan                       # Latency in cycles for TLB miss
system.gpu.shader_cores0.lsq.tlbMissLatency::stdev          nan                       # Latency in cycles for TLB miss
system.gpu.shader_cores0.lsq.tlbMissLatency::0            0                       # Latency in cycles for TLB miss
system.gpu.shader_cores0.lsq.tlbMissLatency::1            0                       # Latency in cycles for TLB miss
system.gpu.shader_cores0.lsq.tlbMissLatency::2            0                       # Latency in cycles for TLB miss
system.gpu.shader_cores0.lsq.tlbMissLatency::3            0                       # Latency in cycles for TLB miss
system.gpu.shader_cores0.lsq.tlbMissLatency::4            0                       # Latency in cycles for TLB miss
system.gpu.shader_cores0.lsq.tlbMissLatency::5            0                       # Latency in cycles for TLB miss
system.gpu.shader_cores0.lsq.tlbMissLatency::6            0                       # Latency in cycles for TLB miss
system.gpu.shader_cores0.lsq.tlbMissLatency::7            0                       # Latency in cycles for TLB miss
system.gpu.shader_cores0.lsq.tlbMissLatency::8            0                       # Latency in cycles for TLB miss
system.gpu.shader_cores0.lsq.tlbMissLatency::9            0                       # Latency in cycles for TLB miss
system.gpu.shader_cores0.lsq.tlbMissLatency::10            0                       # Latency in cycles for TLB miss
system.gpu.shader_cores0.lsq.tlbMissLatency::11            0                       # Latency in cycles for TLB miss
system.gpu.shader_cores0.lsq.tlbMissLatency::12            0                       # Latency in cycles for TLB miss
system.gpu.shader_cores0.lsq.tlbMissLatency::13            0                       # Latency in cycles for TLB miss
system.gpu.shader_cores0.lsq.tlbMissLatency::14            0                       # Latency in cycles for TLB miss
system.gpu.shader_cores0.lsq.tlbMissLatency::15            0                       # Latency in cycles for TLB miss
system.gpu.shader_cores0.lsq.tlbMissLatency::total            0                       # Latency in cycles for TLB miss
system.gpu.shader_cores1.itb.hits                   0                       # Number of hits in this TLB
system.gpu.shader_cores1.itb.misses                 0                       # Number of misses in this TLB
system.gpu.shader_cores1.itb.hitRate              nan                       # Hit rate for this TLB
system.gpu.shader_cores1.local_loads                0                       # Number of loads from local space
system.gpu.shader_cores1.local_stores               0                       # Number of stores to local space
[...]
system.ruby.L1Cache_Controller.I.Trigger_L2_to_L1D::total           44                      
system.ruby.L1Cache_Controller.I.Other_GETX |         556     28.54%     28.54% |        1392     71.46%    100.00%
system.ruby.L1Cache_Controller.I.Other_GETX::total         1948                      
system.ruby.L1Cache_Controller.I.Other_GETS |         718     29.99%     29.99% |        1676     70.01%    100.00%
system.ruby.L1Cache_Controller.I.Other_GETS::total         2394                      
system.ruby.L1Cache_Controller.S.Load    |           2    100.00%    100.00% |           0      0.00%    100.00%
system.ruby.L1Cache_Controller.S.Load::total            2                      
system.ruby.L1Cache_Controller.S.Store   |           2    100.00%    100.00% |           0      0.00%    100.00%
system.ruby.L1Cache_Controller.S.Store::total            2                      
system.ruby.L1Cache_Controller.S.Other_GETS |           1    100.00%    100.00% |           0      0.00%    100.00%
system.ruby.L1Cache_Controller.S.Other_GETS::total            1                      
system.ruby.L1Cache_Controller.O.Load    |           6    100.00%    100.00% |           0      0.00%    100.00%
system.ruby.L1Cache_Controller.O.Load::total            6                      
system.ruby.L1Cache_Controller.O.Other_GETX |           5    100.00%    100.00% |           0      0.00%    100.00%
system.ruby.L1Cache_Controller.O.Other_GETX::total            5                      
system.ruby.L1Cache_Controller.O.Other_GETS |           1    100.00%    100.00% |           0      0.00%    100.00%
system.ruby.L1Cache_Controller.O.Other_GETS::total            1                      
system.ruby.L1Cache_Controller.M.Load    |      103073    100.00%    100.00% |           0      0.00%    100.00%
system.ruby.L1Cache_Controller.M.Load::total       103073                      
system.ruby.L1Cache_Controller.M.Ifetch  |     6655201    100.00%    100.00% |           0      0.00%    100.00%
system.ruby.L1Cache_Controller.M.Ifetch::total      6655201                      
system.ruby.L1Cache_Controller.M.Store   |          23    100.00%    100.00% |           0      0.00%    100.00%
system.ruby.L1Cache_Controller.M.Store::total           23                      
system.ruby.L1Cache_Controller.M.L1_to_L2 |        5409    100.00%    100.00% |           0      0.00%    100.00%
system.ruby.L1Cache_Controller.M.L1_to_L2::total         5409                      
system.ruby.L1Cache_Controller.M.Trigger_L2_to_L1D |          22    100.00%    100.00% |           0      0.00%    100.00%
system.ruby.L1Cache_Controller.M.Trigger_L2_to_L1D::total           22                      
system.ruby.L1Cache_Controller.M.Trigger_L2_to_L1I |        5070    100.00%    100.00% |           0      0.00%    100.00%
system.ruby.L1Cache_Controller.M.Trigger_L2_to_L1I::total         5070                      
system.ruby.L1Cache_Controller.M.Other_GETX |          15    100.00%    100.00% |           0      0.00%    100.00%
system.ruby.L1Cache_Controller.M.Other_GETX::total           15                      
system.ruby.L1Cache_Controller.M.Other_GETS |           6    100.00%    100.00% |           0      0.00%    100.00%
system.ruby.L1Cache_Controller.M.Other_GETS::total            6                      
system.ruby.L1Cache_Controller.MM.Load   |     1136615    100.00%    100.00% |           0      0.00%    100.00%
system.ruby.L1Cache_Controller.MM.Load::total      1136615                      
system.ruby.L1Cache_Controller.MM.Store  |      844464    100.00%    100.00% |           0      0.00%    100.00%
system.ruby.L1Cache_Controller.MM.Store::total       844464                      
system.ruby.L1Cache_Controller.MM.L1_to_L2 |         701    100.00%    100.00% |           0      0.00%    100.00%
system.ruby.L1Cache_Controller.MM.L1_to_L2::total          701                      
system.ruby.L1Cache_Controller.MM.Trigger_L2_to_L1D |         453    100.00%    100.00% |           0      0.00%    100.00%
system.ruby.L1Cache_Controller.MM.Trigger_L2_to_L1D::total          453                      
system.ruby.L1Cache_Controller.MM.Other_GETX |           8    100.00%    100.00% |           0      0.00%    100.00%
system.ruby.L1Cache_Controller.MM.Other_GETX::total            8                      
system.ruby.L1Cache_Controller.MM.Other_GETS |         285    100.00%    100.00% |           0      0.00%    100.00%
system.ruby.L1Cache_Controller.MM.Other_GETS::total          285                      
system.ruby.L1Cache_Controller.IR.Load   |          44    100.00%    100.00% |           0      0.00%    100.00%
system.ruby.L1Cache_Controller.IR.Load::total           44                      
system.ruby.L1Cache_Controller.MR.Load   |          21    100.00%    100.00% |           0      0.00%    100.00%
system.ruby.L1Cache_Controller.MR.Load::total           21                      
system.ruby.L1Cache_Controller.MR.Ifetch |        5070    100.00%    100.00% |           0      0.00%    100.00%
system.ruby.L1Cache_Controller.MR.Ifetch::total         5070                      
system.ruby.L1Cache_Controller.MR.Store  |           1    100.00%    100.00% |           0      0.00%    100.00%
system.ruby.L1Cache_Controller.MR.Store::total            1                      
system.ruby.L1Cache_Controller.MMR.Load  |         432    100.00%    100.00% |           0      0.00%    100.00%
system.ruby.L1Cache_Controller.MMR.Load::total          432                      
system.ruby.L1Cache_Controller.MMR.Store |          21    100.00%    100.00% |           0      0.00%    100.00%
system.ruby.L1Cache_Controller.MMR.Store::total           21                      
system.ruby.L1Cache_Controller.IM.Ack    |         807    100.00%    100.00% |           0      0.00%    100.00%
system.ruby.L1Cache_Controller.IM.Ack::total          807                      
system.ruby.L1Cache_Controller.IM.Data   |           1    100.00%    100.00% |           0      0.00%    100.00%
system.ruby.L1Cache_Controller.IM.Data::total            1                      
system.ruby.L1Cache_Controller.IM.Exclusive_Data |         805    100.00%    100.00% |           0      0.00%    100.00%
system.ruby.L1Cache_Controller.IM.Exclusive_Data::total          805                      
system.ruby.L1Cache_Controller.SM.Ack    |           2    100.00%    100.00% |           0      0.00%    100.00%
system.ruby.L1Cache_Controller.SM.Ack::total            2                      
system.ruby.L1Cache_Controller.SM.Data   |           2    100.00%    100.00% |           0      0.00%    100.00%
system.ruby.L1Cache_Controller.SM.Data::total            2                      
system.ruby.L1Cache_Controller.ISM.All_acks_no_sharers |           3    100.00%    100.00% |           0      0.00%    100.00%
system.ruby.L1Cache_Controller.ISM.All_acks_no_sharers::total            3                      
system.ruby.L1Cache_Controller.M_W.Load  |          96    100.00%    100.00% |           0      0.00%    100.00%
system.ruby.L1Cache_Controller.M_W.Load::total           96                      
system.ruby.L1Cache_Controller.M_W.Ifetch |        4380    100.00%    100.00% |           0      0.00%    100.00%
system.ruby.L1Cache_Controller.M_W.Ifetch::total         4380                      
system.ruby.L1Cache_Controller.M_W.Store |           8    100.00%    100.00% |           0      0.00%    100.00%
system.ruby.L1Cache_Controller.M_W.Store::total            8                      
system.ruby.L1Cache_Controller.M_W.Ack   |         652    100.00%    100.00% |           0      0.00%    100.00%
system.ruby.L1Cache_Controller.M_W.Ack::total          652                      
system.ruby.L1Cache_Controller.M_W.All_acks_no_sharers |         654    100.00%    100.00% |           0      0.00%    100.00%
system.ruby.L1Cache_Controller.M_W.All_acks_no_sharers::total          654                      
system.ruby.L1Cache_Controller.MM_W.Load |          10    100.00%    100.00% |           0      0.00%    100.00%
system.ruby.L1Cache_Controller.MM_W.Load::total           10                      
system.ruby.L1Cache_Controller.MM_W.Store |         224    100.00%    100.00% |           0      0.00%    100.00%
system.ruby.L1Cache_Controller.MM_W.Store::total          224                      
system.ruby.L1Cache_Controller.MM_W.Ack  |         811    100.00%    100.00% |           0      0.00%    100.00%
system.ruby.L1Cache_Controller.MM_W.Ack::total          811                      
system.ruby.L1Cache_Controller.MM_W.All_acks_no_sharers |         813    100.00%    100.00% |           0      0.00%    100.00%
system.ruby.L1Cache_Controller.MM_W.All_acks_no_sharers::total          813                      
system.ruby.L1Cache_Controller.IS.Ack    |         665    100.00%    100.00% |           0      0.00%    100.00%
system.ruby.L1Cache_Controller.IS.Ack::total          665                      
system.ruby.L1Cache_Controller.IS.Shared_Data |           2    100.00%    100.00% |           0      0.00%    100.00%
system.ruby.L1Cache_Controller.IS.Shared_Data::total            2                      
system.ruby.L1Cache_Controller.IS.Exclusive_Data |         663    100.00%    100.00% |           0      0.00%    100.00%
system.ruby.L1Cache_Controller.IS.Exclusive_Data::total          663                      
system.ruby.L1Cache_Controller.SS.All_acks |           2    100.00%    100.00% |           0      0.00%    100.00%
system.ruby.L1Cache_Controller.SS.All_acks::total            2                      
system.ruby.L1Cache_Controller.IT.Complete_L2_to_L1 |          44    100.00%    100.00% |           0      0.00%    100.00%
system.ruby.L1Cache_Controller.IT.Complete_L2_to_L1::total           44                      
system.ruby.L1Cache_Controller.MT.Complete_L2_to_L1 |        5092    100.00%    100.00% |           0      0.00%    100.00%
system.ruby.L1Cache_Controller.MT.Complete_L2_to_L1::total         5092                      
system.ruby.L1Cache_Controller.MMT.Complete_L2_to_L1 |         453    100.00%    100.00% |           0      0.00%    100.00%
system.ruby.L1Cache_Controller.MMT.Complete_L2_to_L1::total          453                      
system.ruby.GPUL1Cache_Controller.Load   |         422     24.93%     24.93% |         427     25.22%     50.15% |         422     24.93%     75.07% |         422     24.93%    100.00%
system.ruby.GPUL1Cache_Controller.Load::total         1693                      
system.ruby.GPUL1Cache_Controller.Ifetch |          12     24.49%     24.49% |          13     26.53%     51.02% |          12     24.49%     75.51% |          12     24.49%    100.00%
system.ruby.GPUL1Cache_Controller.Ifetch::total           49                      
system.ruby.GPUL1Cache_Controller.Store  |         314     24.96%     24.96% |         316     25.12%     50.08% |         314     24.96%     75.04% |         314     24.96%    100.00%
system.ruby.GPUL1Cache_Controller.Store::total         1258                      
system.ruby.GPUL1Cache_Controller.Data   |         151     24.39%     24.39% |         160     25.85%     50.24% |         151     24.39%     74.64% |         157     25.36%    100.00%
system.ruby.GPUL1Cache_Controller.Data::total          619                      
system.ruby.GPUL1Cache_Controller.Write_Ack |         314     24.96%     24.96% |         316     25.12%     50.08% |         314     24.96%     75.04% |         314     24.96%    100.00%
system.ruby.GPUL1Cache_Controller.Write_Ack::total         1258                      
system.ruby.GPUL1Cache_Controller.I.Load |         139     24.39%     24.39% |         147     25.79%     50.18% |         139     24.39%     74.56% |         145     25.44%    100.00%
system.ruby.GPUL1Cache_Controller.I.Load::total          570                      
system.ruby.GPUL1Cache_Controller.I.Ifetch |          12     24.49%     24.49% |          13     26.53%     51.02% |          12     24.49%     75.51% |          12     24.49%    100.00%
system.ruby.GPUL1Cache_Controller.I.Ifetch::total           49                      
system.ruby.GPUL1Cache_Controller.I.Store |         180     25.28%     25.28% |         176     24.72%     50.00% |         180     25.28%     75.28% |         176     24.72%    100.00%
system.ruby.GPUL1Cache_Controller.I.Store::total          712                      
system.ruby.GPUL1Cache_Controller.V.Load |         283     25.20%     25.20% |         280     24.93%     50.13% |         283     25.20%     75.33% |         277     24.67%    100.00%
system.ruby.GPUL1Cache_Controller.V.Load::total         1123                      
system.ruby.GPUL1Cache_Controller.V.Store |         134     24.54%     24.54% |         140     25.64%     50.18% |         134     24.54%     74.73% |         138     25.27%    100.00%
system.ruby.GPUL1Cache_Controller.V.Store::total          546                      
system.ruby.GPUL1Cache_Controller.IA.Write_Ack |         314     24.96%     24.96% |         316     25.12%     50.08% |         314     24.96%     75.04% |         314     24.96%    100.00%
system.ruby.GPUL1Cache_Controller.IA.Write_Ack::total         1258                      
system.ruby.GPUL1Cache_Controller.IV.Data |         151     24.39%     24.39% |         160     25.85%     50.24% |         151     24.39%     74.64% |         157     25.36%    100.00%
system.ruby.GPUL1Cache_Controller.IV.Data::total          619                      
system.ruby.GPUL2Cache_Controller.Get             678      0.00%      0.00%
system.ruby.GPUL2Cache_Controller.Store          1261      0.00%      0.00%
system.ruby.GPUL2Cache_Controller.Other_GETX         1384      0.00%      0.00%
system.ruby.GPUL2Cache_Controller.Other_GETS         1242      0.00%      0.00%
system.ruby.GPUL2Cache_Controller.Ack             881      0.00%      0.00%
system.ruby.GPUL2Cache_Controller.Shared_Data            1      0.00%      0.00%
system.ruby.GPUL2Cache_Controller.Exclusive_Data          441      0.00%      0.00%
system.ruby.GPUL2Cache_Controller.All_acks            1      0.00%      0.00%
system.ruby.GPUL2Cache_Controller.All_acks_no_sharers          441      0.00%      0.00%
system.ruby.GPUL2Cache_Controller.I.Get           434      0.00%      0.00%
system.ruby.GPUL2Cache_Controller.I.Store            8      0.00%      0.00%
system.ruby.GPUL2Cache_Controller.I.Other_GETX         1244      0.00%      0.00%
system.ruby.GPUL2Cache_Controller.I.Other_GETS         1084      0.00%      0.00%
system.ruby.GPUL2Cache_Controller.S.Get             3      0.00%      0.00%
system.ruby.GPUL2Cache_Controller.O.Other_GETX            3      0.00%      0.00%
system.ruby.GPUL2Cache_Controller.O.Other_GETS            1      0.00%      0.00%
system.ruby.GPUL2Cache_Controller.M.Get            80      0.00%      0.00%
system.ruby.GPUL2Cache_Controller.M.Store          411      0.00%      0.00%
system.ruby.GPUL2Cache_Controller.M.Other_GETS           10      0.00%      0.00%
system.ruby.GPUL2Cache_Controller.MM.Get          102      0.00%      0.00%
system.ruby.GPUL2Cache_Controller.MM.Store          839      0.00%      0.00%
system.ruby.GPUL2Cache_Controller.MM.Other_GETX          137      0.00%      0.00%
system.ruby.GPUL2Cache_Controller.MM.Other_GETS          147      0.00%      0.00%
system.ruby.GPUL2Cache_Controller.IM.Store            3      0.00%      0.00%
system.ruby.GPUL2Cache_Controller.IM.Ack           14      0.00%      0.00%
system.ruby.GPUL2Cache_Controller.IM.Exclusive_Data            8      0.00%      0.00%
system.ruby.GPUL2Cache_Controller.IS.Get           59      0.00%      0.00%
system.ruby.GPUL2Cache_Controller.IS.Ack          867      0.00%      0.00%
system.ruby.GPUL2Cache_Controller.IS.Shared_Data            1      0.00%      0.00%
system.ruby.GPUL2Cache_Controller.IS.Exclusive_Data          433      0.00%      0.00%
system.ruby.GPUL2Cache_Controller.SS.All_acks            1      0.00%      0.00%
system.ruby.GPUL2Cache_Controller.M_W.All_acks_no_sharers          433      0.00%      0.00%
system.ruby.GPUL2Cache_Controller.MM_W.All_acks_no_sharers            8      0.00%      0.00%
system.ruby.Directory_Controller.GETX             816      0.00%      0.00%
system.ruby.Directory_Controller.GETS            1099      0.00%      0.00%
system.ruby.Directory_Controller.UnblockS            3      0.00%      0.00%
system.ruby.Directory_Controller.UnblockM         1911      0.00%      0.00%
system.ruby.Directory_Controller.DMA_READ          577      0.00%      0.00%
system.ruby.Directory_Controller.DMA_WRITE          576      0.00%      0.00%
system.ruby.Directory_Controller.Memory_Data         2036      0.00%      0.00%
system.ruby.Directory_Controller.Memory_Ack          576      0.00%      0.00%
system.ruby.Directory_Controller.Ack             2851      0.00%      0.00%
system.ruby.Directory_Controller.Shared_Ack            1      0.00%      0.00%
system.ruby.Directory_Controller.Shared_Data           15      0.00%      0.00%
system.ruby.Directory_Controller.Data               5      0.00%      0.00%
system.ruby.Directory_Controller.Exclusive_Data          587      0.00%      0.00%
system.ruby.Directory_Controller.All_acks_and_shared_data           15      0.00%      0.00%
system.ruby.Directory_Controller.All_acks_and_data_no_sharers         1138      0.00%      0.00%
system.ruby.Directory_Controller.NX.GETX            1      0.00%      0.00%
system.ruby.Directory_Controller.NX.DMA_READ            1      0.00%      0.00%
system.ruby.Directory_Controller.NO.GETX            3      0.00%      0.00%
system.ruby.Directory_Controller.NO.GETS            5      0.00%      0.00%
system.ruby.Directory_Controller.NO.DMA_READ          443      0.00%      0.00%
system.ruby.Directory_Controller.NO.DMA_WRITE          157      0.00%      0.00%
system.ruby.Directory_Controller.S.GETX             2      0.00%      0.00%
system.ruby.Directory_Controller.S.DMA_READ            1      0.00%      0.00%
system.ruby.Directory_Controller.S.DMA_WRITE            5      0.00%      0.00%
system.ruby.Directory_Controller.E.GETX           810      0.00%      0.00%
system.ruby.Directory_Controller.E.GETS          1094      0.00%      0.00%
system.ruby.Directory_Controller.E.DMA_READ          132      0.00%      0.00%
system.ruby.Directory_Controller.E.DMA_WRITE          414      0.00%      0.00%
system.ruby.Directory_Controller.NO_B.UnblockS            3      0.00%      0.00%
system.ruby.Directory_Controller.NO_B.UnblockM         1911      0.00%      0.00%
system.ruby.Directory_Controller.NO_B_W.Memory_Data         1904      0.00%      0.00%
system.ruby.Directory_Controller.NO_DW_B_W.Ack         1566      0.00%      0.00%
system.ruby.Directory_Controller.NO_DW_B_W.Data            5      0.00%      0.00%
system.ruby.Directory_Controller.NO_DW_B_W.Exclusive_Data          157      0.00%      0.00%
system.ruby.Directory_Controller.NO_DW_B_W.All_acks_and_data_no_sharers          576      0.00%      0.00%
system.ruby.Directory_Controller.NO_DR_B_W.Memory_Data          132      0.00%      0.00%
system.ruby.Directory_Controller.NO_DR_B_W.Ack          374      0.00%      0.00%
system.ruby.Directory_Controller.NO_DR_B_D.Ack          889      0.00%      0.00%
system.ruby.Directory_Controller.NO_DR_B_D.Shared_Ack            1      0.00%      0.00%
system.ruby.Directory_Controller.NO_DR_B_D.Shared_Data           15      0.00%      0.00%
system.ruby.Directory_Controller.NO_DR_B_D.Exclusive_Data          430      0.00%      0.00%
system.ruby.Directory_Controller.NO_DR_B_D.All_acks_and_shared_data           15      0.00%      0.00%
system.ruby.Directory_Controller.NO_DR_B_D.All_acks_and_data_no_sharers          430      0.00%      0.00%
system.ruby.Directory_Controller.NO_DR_B.Ack           22      0.00%      0.00%
system.ruby.Directory_Controller.NO_DR_B.All_acks_and_data_no_sharers          132      0.00%      0.00%
system.ruby.Directory_Controller.NO_DW_W.Memory_Ack          576      0.00%      0.00%

---------- End Simulation Statistics   ----------
