
---------- Begin Simulation Statistics ----------
sim_seconds                                  0.013306                       # Number of seconds simulated
sim_ticks                                 13305745500                       # Number of ticks simulated
final_tick                                13305745500                       # Number of ticks from beginning of simulation (restored from checkpoints and never reset)
sim_freq                                 1000000000000                       # Frequency of simulated ticks
host_inst_rate                                 242647                       # Simulator instruction rate (inst/s)
host_op_rate                                   463558                       # Simulator op (including micro ops) rate (op/s)
host_tick_rate                              650880434                       # Simulator tick rate (ticks/s)
host_mem_usage                                4514936                       # Number of bytes of host memory used
host_seconds                                    20.44                       # Real time elapsed on the host
sim_insts                                     4960342                       # Number of instructions simulated
sim_ops                                       9476372                       # Number of ops (including micro ops) simulated
system.voltage_domain.voltage                       1                       # Voltage in Volts
system.clk_domain.clock                          1000                       # Clock period in ticks
system.mem_ctrls.clk_domain.clock                2500                       # Clock period in ticks
system.mem_ctrls.bytes_read::ruby.dir_cntrl0       260608                       # Number of bytes read from this memory
system.mem_ctrls.bytes_read::total             260608                       # Number of bytes read from this memory
system.mem_ctrls.bytes_written::ruby.dir_cntrl0        73728                       # Number of bytes written to this memory
system.mem_ctrls.bytes_written::total           73728                       # Number of bytes written to this memory
system.mem_ctrls.num_reads::ruby.dir_cntrl0         2036                       # Number of read requests responded to by this memory
system.mem_ctrls.num_reads::total                2036                       # Number of read requests responded to by this memory
system.mem_ctrls.num_writes::ruby.dir_cntrl0          576                       # Number of write requests responded to by this memory
system.mem_ctrls.num_writes::total                576                       # Number of write requests responded to by this memory
system.mem_ctrls.bw_read::ruby.dir_cntrl0     19586125                       # Total read bandwidth from this memory (bytes/s)
system.mem_ctrls.bw_read::total              19586125                       # Total read bandwidth from this memory (bytes/s)
system.mem_ctrls.bw_write::ruby.dir_cntrl0      5541065                       # Write bandwidth from this memory (bytes/s)
system.mem_ctrls.bw_write::total              5541065                       # Write bandwidth from this memory (bytes/s)
system.mem_ctrls.bw_total::ruby.dir_cntrl0     25127190                       # Total bandwidth to/from this memory (bytes/s)
system.mem_ctrls.bw_total::total             25127190                       # Total bandwidth to/from this memory (bytes/s)
system.mem_ctrls.memReq                          2612                       # Total number of memory requests
system.mem_ctrls.memRead                         2036                       # Number of memory reads
system.mem_ctrls.memWrite                         576                       # Number of memory writes
system.mem_ctrls.memRefresh                     12158                       # Number of memory refreshes
system.mem_ctrls.memWaitCycles                  44042                       # Delay stalled at the head of the bank queue
system.mem_ctrls.memInputQ                      13071                       # Delay in the input queue
system.mem_ctrls.memBankQ                       40514                       # Delay behind the head of the bank queue
system.mem_ctrls.totalStalls                    97627                       # Total number of stall cycles
system.mem_ctrls.stallsPerReq               37.376340                       # Expected number of stall cycles per request
system.mem_ctrls.memBankBusy                     7345                       # memory stalls due to busy bank
system.mem_ctrls.memBusBusy                     12519                       # memory stalls due to busy bus
system.mem_ctrls.memReadWriteBusy                 497                       # memory stalls due to read write turnaround
system.mem_ctrls.memDataBusBusy                  1910                       # memory stalls due to read read turnaround
system.mem_ctrls.memArbWait                      9864                       # memory stalls due to arbitration
system.mem_ctrls.memNotOld                      11907                       # memory stalls due to anti starvation
system.mem_ctrls.memBankCount            |          77      2.95%      2.95% |          82      3.14%      6.09% |          82      3.14%      9.23% |          85      3.25%     12.48% |          79      3.02%     15.51% |          86      3.29%     18.80% |          79      3.02%     21.82% |          82      3.14%     24.96% |          82      3.14%     28.10% |          81      3.10%     31.20% |          83      3.18%     34.38% |          76      2.91%     37.29% |          73      2.79%     40.08% |          74      2.83%     42.92% |          79      3.02%     45.94% |          78      2.99%     48.93% |          84      3.22%     52.14% |          86      3.29%     55.44% |          81      3.10%     58.54% |          86      3.29%     61.83% |          77      2.95%     64.78% |          78      2.99%     67.76% |          85      3.25%     71.02% |          88      3.37%     74.39% |          94      3.60%     77.99% |          86      3.29%     81.28% |          83      3.18%     84.46% |          81      3.10%     87.56% |          79      3.02%     90.58% |          80      3.06%     93.64% |          85      3.25%     96.90% |          81      3.10%    100.00% # Number of accesses per bank
system.mem_ctrls.memBankCount::total             2612                       # Number of accesses per bank
system.ruby_clk_domain.clock                      500                       # Clock period in ticks
system.ruby.phys_mem.bytes_read::cpu.inst     53320888                       # Number of bytes read from this memory
system.ruby.phys_mem.bytes_read::cpu.data      7972111                       # Number of bytes read from this memory
system.ruby.phys_mem.bytes_read::gpu.ce         73052                       # Number of bytes read from this memory
system.ruby.phys_mem.bytes_read::gpu.shader_cores0.data        35072                       # Number of bytes read from this memory
system.ruby.phys_mem.bytes_read::gpu.shader_cores0.inst          288                       # Number of bytes read from this memory
system.ruby.phys_mem.bytes_read::gpu.shader_cores1.data        35456                       # Number of bytes read from this memory
system.ruby.phys_mem.bytes_read::gpu.shader_cores1.inst          312                       # Number of bytes read from this memory
system.ruby.phys_mem.bytes_read::gpu.shader_cores2.data        35072                       # Number of bytes read from this memory
system.ruby.phys_mem.bytes_read::gpu.shader_cores2.inst          288                       # Number of bytes read from this memory
system.ruby.phys_mem.bytes_read::gpu.shader_cores3.data        34816                       # Number of bytes read from this memory
system.ruby.phys_mem.bytes_read::gpu.shader_cores3.inst          288                       # Number of bytes read from this memory
system.ruby.phys_mem.bytes_read::total       61507643                       # Number of bytes read from this memory
system.ruby.phys_mem.bytes_inst_read::cpu.inst     53320888                       # Number of instructions bytes read from this memory
system.ruby.phys_mem.bytes_inst_read::gpu.shader_cores0.inst          288                       # Number of instructions bytes read from this memory
system.ruby.phys_mem.bytes_inst_read::gpu.shader_cores1.inst          312                       # Number of instructions bytes read from this memory
system.ruby.phys_mem.bytes_inst_read::gpu.shader_cores2.inst          288                       # Number of instructions bytes read from this memory
system.ruby.phys_mem.bytes_inst_read::gpu.shader_cores3.inst          288                       # Number of instructions bytes read from this memory
system.ruby.phys_mem.bytes_inst_read::total     53322064                       # Number of instructions bytes read from this memory
system.ruby.phys_mem.bytes_written::cpu.data      4969927                       # Number of bytes written to this memory
system.ruby.phys_mem.bytes_written::gpu.ce        73052                       # Number of bytes written to this memory
system.ruby.phys_mem.bytes_written::gpu.shader_cores0.data        12544                       # Number of bytes written to this memory
system.ruby.phys_mem.bytes_written::gpu.shader_cores1.data        12672                       # Number of bytes written to this memory
system.ruby.phys_mem.bytes_written::gpu.shader_cores2.data        12544                       # Number of bytes written to this memory
system.ruby.phys_mem.bytes_written::gpu.shader_cores3.data        12544                       # Number of bytes written to this memory
system.ruby.phys_mem.bytes_written::total      5093283                       # Number of bytes written to this memory
system.ruby.phys_mem.num_reads::cpu.inst      6665111                       # Number of read requests responded to by this memory
system.ruby.phys_mem.num_reads::cpu.data      1297860                       # Number of read requests responded to by this memory
system.ruby.phys_mem.num_reads::gpu.ce            577                       # Number of read requests responded to by this memory
system.ruby.phys_mem.num_reads::gpu.shader_cores0.data          428                       # Number of read requests responded to by this memory
system.ruby.phys_mem.num_reads::gpu.shader_cores0.inst           12                       # Number of read requests responded to by this memory
system.ruby.phys_mem.num_reads::gpu.shader_cores1.data          421                       # Number of read requests responded to by this memory
system.ruby.phys_mem.num_reads::gpu.shader_cores1.inst           13                       # Number of read requests responded to by this memory
system.ruby.phys_mem.num_reads::gpu.shader_cores2.data          428                       # Number of read requests responded to by this memory
system.ruby.phys_mem.num_reads::gpu.shader_cores2.inst           12                       # Number of read requests responded to by this memory
system.ruby.phys_mem.num_reads::gpu.shader_cores3.data          416                       # Number of read requests responded to by this memory
system.ruby.phys_mem.num_reads::gpu.shader_cores3.inst           12                       # Number of read requests responded to by this memory
system.ruby.phys_mem.num_reads::total         7965290                       # Number of read requests responded to by this memory
system.ruby.phys_mem.num_writes::cpu.data       788149                       # Number of write requests responded to by this memory
system.ruby.phys_mem.num_writes::gpu.ce           576                       # Number of write requests responded to by this memory
system.ruby.phys_mem.num_writes::gpu.shader_cores0.data          308                       # Number of write requests responded to by this memory
system.ruby.phys_mem.num_writes::gpu.shader_cores1.data          322                       # Number of write requests responded to by this memory
system.ruby.phys_mem.num_writes::gpu.shader_cores2.data          308                       # Number of write requests responded to by this memory
system.ruby.phys_mem.num_writes::gpu.shader_cores3.data          320                       # Number of write requests responded to by this memory
system.ruby.phys_mem.num_writes::total         789983                       # Number of write requests responded to by this memory
system.ruby.phys_mem.bw_read::cpu.inst     4007358175                       # Total read bandwidth from this memory (bytes/s)
system.ruby.phys_mem.bw_read::cpu.data      599148015                       # Total read bandwidth from this memory (bytes/s)
system.ruby.phys_mem.bw_read::gpu.ce          5490260                       # Total read bandwidth from this memory (bytes/s)
system.ruby.phys_mem.bw_read::gpu.shader_cores0.data      2635854                       # Total read bandwidth from this memory (bytes/s)
system.ruby.phys_mem.bw_read::gpu.shader_cores0.inst        21645                       # Total read bandwidth from this memory (bytes/s)
system.ruby.phys_mem.bw_read::gpu.shader_cores1.data      2664714                       # Total read bandwidth from this memory (bytes/s)
system.ruby.phys_mem.bw_read::gpu.shader_cores1.inst        23449                       # Total read bandwidth from this memory (bytes/s)
system.ruby.phys_mem.bw_read::gpu.shader_cores2.data      2635854                       # Total read bandwidth from this memory (bytes/s)
system.ruby.phys_mem.bw_read::gpu.shader_cores2.inst        21645                       # Total read bandwidth from this memory (bytes/s)
system.ruby.phys_mem.bw_read::gpu.shader_cores3.data      2616614                       # Total read bandwidth from this memory (bytes/s)
system.ruby.phys_mem.bw_read::gpu.shader_cores3.inst        21645                       # Total read bandwidth from this memory (bytes/s)
system.ruby.phys_mem.bw_read::total        4622637867                       # Total read bandwidth from this memory (bytes/s)
system.ruby.phys_mem.bw_inst_read::cpu.inst   4007358175                       # Instruction read bandwidth from this memory (bytes/s)
system.ruby.phys_mem.bw_inst_read::gpu.shader_cores0.inst        21645                       # Instruction read bandwidth from this memory (bytes/s)
system.ruby.phys_mem.bw_inst_read::gpu.shader_cores1.inst        23449                       # Instruction read bandwidth from this memory (bytes/s)
system.ruby.phys_mem.bw_inst_read::gpu.shader_cores2.inst        21645                       # Instruction read bandwidth from this memory (bytes/s)
system.ruby.phys_mem.bw_inst_read::gpu.shader_cores3.inst        21645                       # Instruction read bandwidth from this memory (bytes/s)
system.ruby.phys_mem.bw_inst_read::total   4007446558                       # Instruction read bandwidth from this memory (bytes/s)
system.ruby.phys_mem.bw_write::cpu.data     373517365                       # Write bandwidth from this memory (bytes/s)
system.ruby.phys_mem.bw_write::gpu.ce         5490260                       # Write bandwidth from this memory (bytes/s)
system.ruby.phys_mem.bw_write::gpu.shader_cores0.data       942751                       # Write bandwidth from this memory (bytes/s)
system.ruby.phys_mem.bw_write::gpu.shader_cores1.data       952371                       # Write bandwidth from this memory (bytes/s)
system.ruby.phys_mem.bw_write::gpu.shader_cores2.data       942751                       # Write bandwidth from this memory (bytes/s)
system.ruby.phys_mem.bw_write::gpu.shader_cores3.data       942751                       # Write bandwidth from this memory (bytes/s)
system.ruby.phys_mem.bw_write::total        382788247                       # Write bandwidth from this memory (bytes/s)
system.ruby.phys_mem.bw_total::cpu.inst    4007358175                       # Total bandwidth to/from this memory (bytes/s)
system.ruby.phys_mem.bw_total::cpu.data     972665380                       # Total bandwidth to/from this memory (bytes/s)
system.ruby.phys_mem.bw_total::gpu.ce        10980520                       # Total bandwidth to/from this memory (bytes/s)
system.ruby.phys_mem.bw_total::gpu.shader_cores0.data      3578604                       # Total bandwidth to/from this memory (bytes/s)
system.ruby.phys_mem.bw_total::gpu.shader_cores0.inst        21645                       # Total bandwidth to/from this memory (bytes/s)
system.ruby.phys_mem.bw_total::gpu.shader_cores1.data      3617084                       # Total bandwidth to/from this memory (bytes/s)
system.ruby.phys_mem.bw_total::gpu.shader_cores1.inst        23449                       # Total bandwidth to/from this memory (bytes/s)
system.ruby.phys_mem.bw_total::gpu.shader_cores2.data      3578604                       # Total bandwidth to/from this memory (bytes/s)
system.ruby.phys_mem.bw_total::gpu.shader_cores2.inst        21645                       # Total bandwidth to/from this memory (bytes/s)
system.ruby.phys_mem.bw_total::gpu.shader_cores3.data      3559365                       # Total bandwidth to/from this memory (bytes/s)
system.ruby.phys_mem.bw_total::gpu.shader_cores3.inst        21645                       # Total bandwidth to/from this memory (bytes/s)
system.ruby.phys_mem.bw_total::total       5005426115                       # Total bandwidth to/from this memory (bytes/s)
system.cpu_voltage_domain.voltage                   1                       # Voltage in Volts
system.cpu_clk_domain.clock                       500                       # Clock period in ticks
system.cpu.apic_clk_domain.clock                 8000                       # Clock period in ticks
system.cpu.workload.num_syscalls                   44                       # Number of system calls
system.cpu.numCycles                         26611491                       # number of cpu cycles simulated
system.cpu.numWorkItemsStarted                      1                       # number of work items this cpu started
system.cpu.numWorkItemsCompleted                    1                       # number of work items this cpu completed
system.cpu.committedInsts                     4960342                       # Number of instructions committed
system.cpu.committedOps                       9476372                       # Number of ops (including micro ops) committed
system.cpu.num_int_alu_accesses               9328899                       # Number of integer alu accesses
system.cpu.num_fp_alu_accesses                 212597                       # Number of float alu accesses
system.cpu.num_func_calls                      196548                       # number of times a function call or return occured
system.cpu.num_conditional_control_insts       812644                       # number of instructions that are conditional controls
system.cpu.num_int_insts                      9328899                       # number of integer instructions
system.cpu.num_fp_insts                        212597                       # number of float instructions
system.cpu.num_int_register_reads            17876167                       # number of times the integer registers were read
system.cpu.num_int_register_writes            7459034                       # number of times the integer registers were written
system.cpu.num_fp_register_reads               283084                       # number of times the floating registers were read
system.cpu.num_fp_register_writes              145382                       # number of times the floating registers were written
system.cpu.num_cc_register_reads              5506890                       # number of times the CC registers were read
system.cpu.num_cc_register_writes             3245177                       # number of times the CC registers were written
system.cpu.num_mem_refs                       2086009                       # number of memory refs
system.cpu.num_load_insts                     1297860                       # Number of load instructions
system.cpu.num_store_insts                     788149                       # Number of store instructions
system.cpu.num_idle_cycles               56604.185996                       # Number of idle cycles
system.cpu.num_busy_cycles               26554886.814004                       # Number of busy cycles
system.cpu.not_idle_fraction                 0.997873                       # Percentage of non-idle cycles
system.cpu.idle_fraction                     0.002127                       # Percentage of idle cycles
system.cpu.Branches                           1088921                       # Number of branches fetched
system.cpu.op_class::No_OpClass                 35003      0.37%      0.37% # Class of executed instruction
system.cpu.op_class::IntAlu                   7202864     76.01%     76.38% # Class of executed instruction
system.cpu.op_class::IntMult                    20875      0.22%     76.60% # Class of executed instruction
system.cpu.op_class::IntDiv                       571      0.01%     76.60% # Class of executed instruction
system.cpu.op_class::FloatAdd                  131050      1.38%     77.99% # Class of executed instruction
system.cpu.op_class::FloatCmp                       0      0.00%     77.99% # Class of executed instruction
system.cpu.op_class::FloatCvt                       0      0.00%     77.99% # Class of executed instruction
system.cpu.op_class::FloatMult                      0      0.00%     77.99% # Class of executed instruction
system.cpu.op_class::FloatDiv                       0      0.00%     77.99% # Class of executed instruction
system.cpu.op_class::FloatSqrt                      0      0.00%     77.99% # Class of executed instruction
system.cpu.op_class::SimdAdd                        0      0.00%     77.99% # Class of executed instruction
system.cpu.op_class::SimdAddAcc                     0      0.00%     77.99% # Class of executed instruction
system.cpu.op_class::SimdAlu                        0      0.00%     77.99% # Class of executed instruction
system.cpu.op_class::SimdCmp                        0      0.00%     77.99% # Class of executed instruction
system.cpu.op_class::SimdCvt                        0      0.00%     77.99% # Class of executed instruction
system.cpu.op_class::SimdMisc                       0      0.00%     77.99% # Class of executed instruction
system.cpu.op_class::SimdMult                       0      0.00%     77.99% # Class of executed instruction
system.cpu.op_class::SimdMultAcc                    0      0.00%     77.99% # Class of executed instruction
system.cpu.op_class::SimdShift                      0      0.00%     77.99% # Class of executed instruction
system.cpu.op_class::SimdShiftAcc                   0      0.00%     77.99% # Class of executed instruction
system.cpu.op_class::SimdSqrt                       0      0.00%     77.99% # Class of executed instruction
system.cpu.op_class::SimdFloatAdd                   0      0.00%     77.99% # Class of executed instruction
system.cpu.op_class::SimdFloatAlu                   0      0.00%     77.99% # Class of executed instruction
system.cpu.op_class::SimdFloatCmp                   0      0.00%     77.99% # Class of executed instruction
system.cpu.op_class::SimdFloatCvt                   0      0.00%     77.99% # Class of executed instruction
system.cpu.op_class::SimdFloatDiv                   0      0.00%     77.99% # Class of executed instruction
system.cpu.op_class::SimdFloatMisc                  0      0.00%     77.99% # Class of executed instruction
system.cpu.op_class::SimdFloatMult                  0      0.00%     77.99% # Class of executed instruction
system.cpu.op_class::SimdFloatMultAcc               0      0.00%     77.99% # Class of executed instruction
system.cpu.op_class::SimdFloatSqrt                  0      0.00%     77.99% # Class of executed instruction
system.cpu.op_class::MemRead                  1297860     13.70%     91.68% # Class of executed instruction
system.cpu.op_class::MemWrite                  788149      8.32%    100.00% # Class of executed instruction
system.cpu.op_class::IprAccess                      0      0.00%    100.00% # Class of executed instruction
system.cpu.op_class::InstPrefetch                   0      0.00%    100.00% # Class of executed instruction
system.cpu.op_class::total                    9476372                       # Class of executed instruction
system.gpu.clk_domain.voltage_domain.voltage            1                       # Voltage in Volts
system.gpu.clk_domain.clock                      1429                       # Clock period in ticks
system.gpu.dram_wrapper.clk_domain.clock          541                       # Clock period in ticks
system.gpu.icnt_wrapper.clk_domain.clock         2858                       # Clock period in ticks
system.ruby.delayHist::bucket_size                 16                       # delay histogram for all message
system.ruby.delayHist::max_bucket                 159                       # delay histogram for all message
system.ruby.delayHist::samples                   1885                       # delay histogram for all message
system.ruby.delayHist::mean                  1.988329                       # delay histogram for all message
system.ruby.delayHist::stdev                 8.133302                       # delay histogram for all message
system.ruby.delayHist                    |        1811     96.07%     96.07% |          41      2.18%     98.25% |          14      0.74%     98.99% |          10      0.53%     99.52% |           4      0.21%     99.73% |           4      0.21%     99.95% |           1      0.05%    100.00% |           0      0.00%    100.00% |           0      0.00%    100.00% |           0      0.00%    100.00% # delay histogram for all message
system.ruby.delayHist::total                     1885                       # delay histogram for all message
system.ruby.outstanding_req_hist::bucket_size            8                      
system.ruby.outstanding_req_hist::max_bucket           79                      
system.ruby.outstanding_req_hist::samples      8755273                      
system.ruby.outstanding_req_hist::mean       1.014075                      
system.ruby.outstanding_req_hist::gmean      1.001414                      
system.ruby.outstanding_req_hist::stdev      0.794381                      
system.ruby.outstanding_req_hist         |     8751927     99.96%     99.96% |         553      0.01%     99.97% |         365      0.00%     99.97% |         350      0.00%     99.98% |         655      0.01%     99.98% |         321      0.00%     99.99% |         361      0.00%     99.99% |         195      0.00%     99.99% |         546      0.01%    100.00% |           0      0.00%    100.00%
system.ruby.outstanding_req_hist::total       8755273                      
system.ruby.latency_hist::bucket_size             256                      
system.ruby.latency_hist::max_bucket             2559                      
system.ruby.latency_hist::samples             8755273                      
system.ruby.latency_hist::mean               2.218331                      
system.ruby.latency_hist::gmean              2.007763                      
system.ruby.latency_hist::stdev             12.379157                      
system.ruby.latency_hist                 |     8753305     99.98%     99.98% |         708      0.01%     99.99% |         527      0.01%     99.99% |         437      0.00%    100.00% |         120      0.00%    100.00% |          82      0.00%    100.00% |          70      0.00%    100.00% |          22      0.00%    100.00% |           1      0.00%    100.00% |           1      0.00%    100.00%
system.ruby.latency_hist::total               8755273                      
system.ruby.hit_latency_hist::bucket_size          128                      
system.ruby.hit_latency_hist::max_bucket         1279                      
system.ruby.hit_latency_hist::samples         8753173                      
system.ruby.hit_latency_hist::mean           2.123039                      
system.ruby.hit_latency_hist::gmean          2.005442                      
system.ruby.hit_latency_hist::stdev          8.037908                      
system.ruby.hit_latency_hist             |     8750887     99.97%     99.97% |         922      0.01%     99.98% |         353      0.00%     99.99% |         255      0.00%     99.99% |         264      0.00%     99.99% |         166      0.00%    100.00% |         168      0.00%    100.00% |         141      0.00%    100.00% |          17      0.00%    100.00% |           0      0.00%    100.00%
system.ruby.hit_latency_hist::total           8753173                      
system.ruby.miss_latency_hist::bucket_size          256                      
system.ruby.miss_latency_hist::max_bucket         2559                      
system.ruby.miss_latency_hist::samples           2100                      
system.ruby.miss_latency_hist::mean        399.410952                      
system.ruby.miss_latency_hist::gmean       249.317138                      
system.ruby.miss_latency_hist::stdev       460.329280                      
system.ruby.miss_latency_hist            |        1496     71.24%     71.24% |         100      4.76%     76.00% |          97      4.62%     80.62% |         128      6.10%     86.71% |         103      4.90%     91.62% |          82      3.90%     95.52% |          70      3.33%     98.86% |          22      1.05%     99.90% |           1      0.05%     99.95% |           1      0.05%    100.00%
system.ruby.miss_latency_hist::total             2100                      
system.ruby.L1Cache.incomplete_times                1                      
system.ruby.GPUL2Cache.incomplete_times           193                      
system.ruby.Directory.incomplete_times            433                      
system.gpu.shader_mmu.numPagefaults                 0                       # Number of Pagefaults
system.gpu.shader_mmu.numPagewalks                168                       # Number of Pagewalks
system.gpu.shader_mmu.totalRequests               168                       # Total number of requests
system.gpu.shader_mmu.retryFailures                 0                       # Times the retry walk after a pagefault failed
system.gpu.shader_mmu.l2hits                        0                       # Hits in the shared L2
system.gpu.shader_mmu.prefetchHits                  0                       # Number of prefetch hits
system.gpu.shader_mmu.numPrefetches                 0                       # Number of prefetchs
system.gpu.shader_mmu.prefetchFaults                0                       # Number of faults caused by prefetches
system.gpu.shader_mmu.pagefaultLatency::samples            0                       # Latency to complete the pagefault
system.gpu.shader_mmu.pagefaultLatency::mean          nan                       # Latency to complete the pagefault
system.gpu.shader_mmu.pagefaultLatency::gmean          nan                       # Latency to complete the pagefault
system.gpu.shader_mmu.pagefaultLatency::stdev          nan                       # Latency to complete the pagefault
system.gpu.shader_mmu.pagefaultLatency::0            0                       # Latency to complete the pagefault
system.gpu.shader_mmu.pagefaultLatency::1            0                       # Latency to complete the pagefault
system.gpu.shader_mmu.pagefaultLatency::2            0                       # Latency to complete the pagefault
system.gpu.shader_mmu.pagefaultLatency::3            0                       # Latency to complete the pagefault
system.gpu.shader_mmu.pagefaultLatency::4            0                       # Latency to complete the pagefault
system.gpu.shader_mmu.pagefaultLatency::5            0                       # Latency to complete the pagefault
system.gpu.shader_mmu.pagefaultLatency::6            0                       # Latency to complete the pagefault
system.gpu.shader_mmu.pagefaultLatency::7            0                       # Latency to complete the pagefault
system.gpu.shader_mmu.pagefaultLatency::8            0                       # Latency to complete the pagefault
system.gpu.shader_mmu.pagefaultLatency::9            0                       # Latency to complete the pagefault
system.gpu.shader_mmu.pagefaultLatency::10            0                       # Latency to complete the pagefault
system.gpu.shader_mmu.pagefaultLatency::11            0                       # Latency to complete the pagefault
system.gpu.shader_mmu.pagefaultLatency::12            0                       # Latency to complete the pagefault
system.gpu.shader_mmu.pagefaultLatency::13            0                       # Latency to complete the pagefault
system.gpu.shader_mmu.pagefaultLatency::14            0                       # Latency to complete the pagefault
system.gpu.shader_mmu.pagefaultLatency::15            0                       # Latency to complete the pagefault
system.gpu.shader_mmu.pagefaultLatency::16            0                       # Latency to complete the pagefault
system.gpu.shader_mmu.pagefaultLatency::17            0                       # Latency to complete the pagefault
system.gpu.shader_mmu.pagefaultLatency::18            0                       # Latency to complete the pagefault
system.gpu.shader_mmu.pagefaultLatency::19            0                       # Latency to complete the pagefault
system.gpu.shader_mmu.pagefaultLatency::20            0                       # Latency to complete the pagefault
system.gpu.shader_mmu.pagefaultLatency::21            0                       # Latency to complete the pagefault
system.gpu.shader_mmu.pagefaultLatency::22            0                       # Latency to complete the pagefault
system.gpu.shader_mmu.pagefaultLatency::23            0                       # Latency to complete the pagefault
system.gpu.shader_mmu.pagefaultLatency::24            0                       # Latency to complete the pagefault
system.gpu.shader_mmu.pagefaultLatency::25            0                       # Latency to complete the pagefault
system.gpu.shader_mmu.pagefaultLatency::26            0                       # Latency to complete the pagefault
system.gpu.shader_mmu.pagefaultLatency::27            0                       # Latency to complete the pagefault
system.gpu.shader_mmu.pagefaultLatency::28            0                       # Latency to complete the pagefault
system.gpu.shader_mmu.pagefaultLatency::29            0                       # Latency to complete the pagefault
system.gpu.shader_mmu.pagefaultLatency::30            0                       # Latency to complete the pagefault
system.gpu.shader_mmu.pagefaultLatency::31            0                       # Latency to complete the pagefault
system.gpu.shader_mmu.pagefaultLatency::total            0                       # Latency to complete the pagefault
system.gpu.shader_mmu.concurrentWalks::samples          168                       # Number of outstanding walks
system.gpu.shader_mmu.concurrentWalks::mean            0                       # Number of outstanding walks
system.gpu.shader_mmu.concurrentWalks::gmean            0                       # Number of outstanding walks
system.gpu.shader_mmu.concurrentWalks::stdev            0                       # Number of outstanding walks
system.gpu.shader_mmu.concurrentWalks::0          168    100.00%    100.00% # Number of outstanding walks
system.gpu.shader_mmu.concurrentWalks::1            0      0.00%    100.00% # Number of outstanding walks
system.gpu.shader_mmu.concurrentWalks::2            0      0.00%    100.00% # Number of outstanding walks
system.gpu.shader_mmu.concurrentWalks::3            0      0.00%    100.00% # Number of outstanding walks
system.gpu.shader_mmu.concurrentWalks::4            0      0.00%    100.00% # Number of outstanding walks
system.gpu.shader_mmu.concurrentWalks::5            0      0.00%    100.00% # Number of outstanding walks
system.gpu.shader_mmu.concurrentWalks::6            0      0.00%    100.00% # Number of outstanding walks
system.gpu.shader_mmu.concurrentWalks::7            0      0.00%    100.00% # Number of outstanding walks
system.gpu.shader_mmu.concurrentWalks::8            0      0.00%    100.00% # Number of outstanding walks
system.gpu.shader_mmu.concurrentWalks::9            0      0.00%    100.00% # Number of outstanding walks
system.gpu.shader_mmu.concurrentWalks::10            0      0.00%    100.00% # Number of outstanding walks
system.gpu.shader_mmu.concurrentWalks::11            0      0.00%    100.00% # Number of outstanding walks
system.gpu.shader_mmu.concurrentWalks::12            0      0.00%    100.00% # Number of outstanding walks
system.gpu.shader_mmu.concurrentWalks::13            0      0.00%    100.00% # Number of outstanding walks
system.gpu.shader_mmu.concurrentWalks::14            0      0.00%    100.00% # Number of outstanding walks
system.gpu.shader_mmu.concurrentWalks::15            0      0.00%    100.00% # Number of outstanding walks
system.gpu.shader_mmu.concurrentWalks::total          168                       # Number of outstanding walks
system.gpu.shader_mmu.pagewalkLatency::samples          168                       # Latency to complete the pagewalk
system.gpu.shader_mmu.pagewalkLatency::mean            0                       # Latency to complete the pagewalk
system.gpu.shader_mmu.pagewalkLatency::gmean            0                       # Latency to complete the pagewalk
system.gpu.shader_mmu.pagewalkLatency::stdev            0                       # Latency to complete the pagewalk
system.gpu.shader_mmu.pagewalkLatency::0          168    100.00%    100.00% # Latency to complete the pagewalk
system.gpu.shader_mmu.pagewalkLatency::1            0      0.00%    100.00% # Latency to complete the pagewalk
system.gpu.shader_mmu.pagewalkLatency::2            0      0.00%    100.00% # Latency to complete the pagewalk
system.gpu.shader_mmu.pagewalkLatency::3            0      0.00%    100.00% # Latency to complete the pagewalk
system.gpu.shader_mmu.pagewalkLatency::4            0      0.00%    100.00% # Latency to complete the pagewalk
system.gpu.shader_mmu.pagewalkLatency::5            0      0.00%    100.00% # Latency to complete the pagewalk
system.gpu.shader_mmu.pagewalkLatency::6            0      0.00%    100.00% # Latency to complete the pagewalk
system.gpu.shader_mmu.pagewalkLatency::7            0      0.00%    100.00% # Latency to complete the pagewalk
system.gpu.shader_mmu.pagewalkLatency::8            0      0.00%    100.00% # Latency to complete the pagewalk
system.gpu.shader_mmu.pagewalkLatency::9            0      0.00%    100.00% # Latency to complete the pagewalk
system.gpu.shader_mmu.pagewalkLatency::10            0      0.00%    100.00% # Latency to complete the pagewalk
system.gpu.shader_mmu.pagewalkLatency::11            0      0.00%    100.00% # Latency to complete the pagewalk
system.gpu.shader_mmu.pagewalkLatency::12            0      0.00%    100.00% # Latency to complete the pagewalk
system.gpu.shader_mmu.pagewalkLatency::13            0      0.00%    100.00% # Latency to complete the pagewalk
system.gpu.shader_mmu.pagewalkLatency::14            0      0.00%    100.00% # Latency to complete the pagewalk
system.gpu.shader_mmu.pagewalkLatency::15            0      0.00%    100.00% # Latency to complete the pagewalk
system.gpu.shader_mmu.pagewalkLatency::16            0      0.00%    100.00% # Latency to complete the pagewalk
system.gpu.shader_mmu.pagewalkLatency::17            0      0.00%    100.00% # Latency to complete the pagewalk
system.gpu.shader_mmu.pagewalkLatency::18            0      0.00%    100.00% # Latency to complete the pagewalk
system.gpu.shader_mmu.pagewalkLatency::19            0      0.00%    100.00% # Latency to complete the pagewalk
system.gpu.shader_mmu.pagewalkLatency::20            0      0.00%    100.00% # Latency to complete the pagewalk
system.gpu.shader_mmu.pagewalkLatency::21            0      0.00%    100.00% # Latency to complete the pagewalk
system.gpu.shader_mmu.pagewalkLatency::22            0      0.00%    100.00% # Latency to complete the pagewalk
system.gpu.shader_mmu.pagewalkLatency::23            0      0.00%    100.00% # Latency to complete the pagewalk
system.gpu.shader_mmu.pagewalkLatency::24            0      0.00%    100.00% # Latency to complete the pagewalk
system.gpu.shader_mmu.pagewalkLatency::25            0      0.00%    100.00% # Latency to complete the pagewalk
system.gpu.shader_mmu.pagewalkLatency::26            0      0.00%    100.00% # Latency to complete the pagewalk
system.gpu.shader_mmu.pagewalkLatency::27            0      0.00%    100.00% # Latency to complete the pagewalk
system.gpu.shader_mmu.pagewalkLatency::28            0      0.00%    100.00% # Latency to complete the pagewalk
system.gpu.shader_mmu.pagewalkLatency::29            0      0.00%    100.00% # Latency to complete the pagewalk
system.gpu.shader_mmu.pagewalkLatency::30            0      0.00%    100.00% # Latency to complete the pagewalk
system.gpu.shader_mmu.pagewalkLatency::31            0      0.00%    100.00% # Latency to complete the pagewalk
system.gpu.shader_mmu.pagewalkLatency::total          168                       # Latency to complete the pagewalk
system.gpu.kernels_started                          2                       # Number of kernels started
system.gpu.kernels_completed                        2                       # Number of kernels completed
system.gpu.ce.device_dtb.hits                       0                       # Number of hits in this TLB
system.gpu.ce.device_dtb.misses                     0                       # Number of misses in this TLB
system.gpu.ce.device_dtb.hitRate                  nan                       # Hit rate for this TLB
system.gpu.ce.host_dtb.hits                       410                       # Number of hits in this TLB
system.gpu.ce.host_dtb.misses                     168                       # Number of misses in this TLB
system.gpu.ce.host_dtb.hitRate               0.709343                       # Hit rate for this TLB
system.gpu.shader_cores0.itb.hits                   0                       # Number of hits in this TLB
system.gpu.shader_cores0.itb.misses                 0                       # Number of misses in this TLB
system.gpu.shader_cores0.itb.hitRate              nan                       # Hit rate for this TLB
system.gpu.shader_cores0.local_loads                0                       # Number of loads from local space
system.gpu.shader_cores0.local_stores               0                       # Number of stores to local space
system.gpu.shader_cores0.shared_loads            5056                       # Number of loads from shared space
system.gpu.shader_cores0.shared_stores           3072                       # Number of stores to shared space
system.gpu.shader_cores0.param_kernel_loads         7296                       # Number of loads from kernel parameter space
system.gpu.shader_cores0.param_local_loads            0                       # Number of loads from local parameter space
system.gpu.shader_cores0.param_local_stores            0                       # Number of stores to local parameter space
system.gpu.shader_cores0.const_loads                0                       # Number of loads from constant space
system.gpu.shader_cores0.tex_loads                  0                       # Number of loads from texture space
system.gpu.shader_cores0.global_loads            8256                       # Number of loads from global space
system.gpu.shader_cores0.global_stores           3136                       # Number of stores to global space
system.gpu.shader_cores0.surf_loads                 0                       # Number of loads from surface space
system.gpu.shader_cores0.generic_loads              0                       # Number of loads from generic spaces (global, shared, local)
system.gpu.shader_cores0.generic_stores             0                       # Number of stores to generic spaces (global, shared, local)
system.gpu.shader_cores0.inst_cache_requests           12                       # Number of instruction cache requests sent
system.gpu.shader_cores0.inst_cache_retries            0                       # Number of instruction cache retries
system.gpu.shader_cores0.inst_counts::0             0                       # Inst counts: 1: ALU, 2: MAD, 3: CTRL, 4: SFU, 5: MEM, 6: TEX, 7: NOP
system.gpu.shader_cores0.inst_counts::1        130176                       # Inst counts: 1: ALU, 2: MAD, 3: CTRL, 4: SFU, 5: MEM, 6: TEX, 7: NOP
system.gpu.shader_cores0.inst_counts::2          2048                       # Inst counts: 1: ALU, 2: MAD, 3: CTRL, 4: SFU, 5: MEM, 6: TEX, 7: NOP
system.gpu.shader_cores0.inst_counts::3         20416                       # Inst counts: 1: ALU, 2: MAD, 3: CTRL, 4: SFU, 5: MEM, 6: TEX, 7: NOP
system.gpu.shader_cores0.inst_counts::4          6144                       # Inst counts: 1: ALU, 2: MAD, 3: CTRL, 4: SFU, 5: MEM, 6: TEX, 7: NOP
system.gpu.shader_cores0.inst_counts::5         26816                       # Inst counts: 1: ALU, 2: MAD, 3: CTRL, 4: SFU, 5: MEM, 6: TEX, 7: NOP
system.gpu.shader_cores0.inst_counts::6             0                       # Inst counts: 1: ALU, 2: MAD, 3: CTRL, 4: SFU, 5: MEM, 6: TEX, 7: NOP
system.gpu.shader_cores0.inst_counts::7             0                       # Inst counts: 1: ALU, 2: MAD, 3: CTRL, 4: SFU, 5: MEM, 6: TEX, 7: NOP
system.gpu.shader_cores0.activeCycles            8495                       # Number of cycles this shader was executing a CTA
system.gpu.shader_cores0.notStalledCycles         4746                       # Number of cycles this shader was actually executing at least one instance
system.gpu.shader_cores0.instInstances         185600                       # Total instructions executed by all PEs in the core
system.gpu.shader_cores0.instPerCycle       21.848146                       # Instruction instances per cycle
system.gpu.shader_cores0.kernels_completed            2                       # Number of kernels completed
system.gpu.shader_cores0.lsq.data_tlb.hits            0                       # Number of hits in this TLB
system.gpu.shader_cores0.lsq.data_tlb.misses            0                       # Number of misses in this TLB
system.gpu.shader_cores0.lsq.data_tlb.hitRate          nan                       # Hit rate for this TLB
system.gpu.shader_cores0.lsq.warpInstBufActive::samples     11210505                       # Histogram of number of active warp inst buffers at a given time
system.gpu.shader_cores0.lsq.warpInstBufActive::mean    17.815806                       # Histogram of number of active warp inst buffers at a given time
system.gpu.shader_cores0.lsq.warpInstBufActive::gmean          nan                       # Histogram of number of active warp inst buffers at a given time
system.gpu.shader_cores0.lsq.warpInstBufActive::stdev    17.783569                       # Histogram of number of active warp inst buffers at a given time
system.gpu.shader_cores0.lsq.warpInstBufActive::0      2642221     23.57%     23.57% # Histogram of number of active warp inst buffers at a given time
system.gpu.shader_cores0.lsq.warpInstBufActive::1       831678      7.42%     30.99% # Histogram of number of active warp inst buffers at a given time
system.gpu.shader_cores0.lsq.warpInstBufActive::2       414410      3.70%     34.68% # Histogram of number of active warp inst buffers at a given time
system.gpu.shader_cores0.lsq.warpInstBufActive::3       241501      2.15%     36.84% # Histogram of number of active warp inst buffers at a given time
system.gpu.shader_cores0.lsq.warpInstBufActive::4       118607      1.06%     37.90% # Histogram of number of active warp inst buffers at a given time
system.gpu.shader_cores0.lsq.warpInstBufActive::5       120036      1.07%     38.97% # Histogram of number of active warp inst buffers at a given time
system.gpu.shader_cores0.lsq.warpInstBufActive::6       200060      1.78%     40.75% # Histogram of number of active warp inst buffers at a given time
system.gpu.shader_cores0.lsq.warpInstBufActive::7        85740      0.76%     41.52% # Histogram of number of active warp inst buffers at a given time
system.gpu.shader_cores0.lsq.warpInstBufActive::8       124323      1.11%     42.63% # Histogram of number of active warp inst buffers at a given time
system.gpu.shader_cores0.lsq.warpInstBufActive::9        68592      0.61%     43.24% # Histogram of number of active warp inst buffers at a given time
system.gpu.shader_cores0.lsq.warpInstBufActive::10        92885      0.83%     44.07% # Histogram of number of active warp inst buffers at a given time
system.gpu.shader_cores0.lsq.warpInstBufActive::11       155761      1.39%     45.46% # Histogram of number of active warp inst buffers at a given time
system.gpu.shader_cores0.lsq.warpInstBufActive::12       172909      1.54%     47.00% # Histogram of number of active warp inst buffers at a given time
system.gpu.shader_cores0.lsq.warpInstBufActive::13        94314      0.84%     47.84% # Histogram of number of active warp inst buffers at a given time
system.gpu.shader_cores0.lsq.warpInstBufActive::14       192915      1.72%     49.56% # Histogram of number of active warp inst buffers at a given time
system.gpu.shader_cores0.lsq.warpInstBufActive::15       161477      1.44%     51.00% # Histogram of number of active warp inst buffers at a given time
system.gpu.shader_cores0.lsq.warpInstBufActive::16       434416      3.88%     54.88% # Histogram of number of active warp inst buffers at a given time
system.gpu.shader_cores0.lsq.warpInstBufActive::17        72879      0.65%     55.53% # Histogram of number of active warp inst buffers at a given time
system.gpu.shader_cores0.lsq.warpInstBufActive::18       164335      1.47%     56.99% # Histogram of number of active warp inst buffers at a given time
system.gpu.shader_cores0.lsq.warpInstBufActive::19        75737      0.68%     57.67% # Histogram of number of active warp inst buffers at a given time
system.gpu.shader_cores0.lsq.warpInstBufActive::20       268652      2.40%     60.06% # Histogram of number of active warp inst buffers at a given time
system.gpu.shader_cores0.lsq.warpInstBufActive::21        60018      0.54%     60.60% # Histogram of number of active warp inst buffers at a given time
system.gpu.shader_cores0.lsq.warpInstBufActive::22       165764      1.48%     62.08% # Histogram of number of active warp inst buffers at a given time
system.gpu.shader_cores0.lsq.warpInstBufActive::23       101459      0.91%     62.98% # Histogram of number of active warp inst buffers at a given time
system.gpu.shader_cores0.lsq.warpInstBufActive::24       154332      1.38%     64.36% # Histogram of number of active warp inst buffers at a given time
system.gpu.shader_cores0.lsq.warpInstBufActive::25        50015      0.45%     64.81% # Histogram of number of active warp inst buffers at a given time
system.gpu.shader_cores0.lsq.warpInstBufActive::26        48586      0.43%     65.24% # Histogram of number of active warp inst buffers at a given time
system.gpu.shader_cores0.lsq.warpInstBufActive::27       127181      1.13%     66.37% # Histogram of number of active warp inst buffers at a given time
system.gpu.shader_cores0.lsq.warpInstBufActive::28        98601      0.88%     67.25% # Histogram of number of active warp inst buffers at a given time
system.gpu.shader_cores0.lsq.warpInstBufActive::29       138613      1.24%     68.49% # Histogram of number of active warp inst buffers at a given time
system.gpu.shader_cores0.lsq.warpInstBufActive::30       198631      1.77%     70.26% # Histogram of number of active warp inst buffers at a given time
system.gpu.shader_cores0.lsq.warpInstBufActive::31       187199      1.67%     71.93% # Histogram of number of active warp inst buffers at a given time
system.gpu.shader_cores0.lsq.warpInstBufActive::32      1617628     14.43%     86.36% # Histogram of number of active warp inst buffers at a given time
system.gpu.shader_cores0.lsq.warpInstBufActive::33        62876      0.56%     86.92% # Histogram of number of active warp inst buffers at a given time
system.gpu.shader_cores0.lsq.warpInstBufActive::34        30009      0.27%     87.19% # Histogram of number of active warp inst buffers at a given time
system.gpu.shader_cores0.lsq.warpInstBufActive::35        22864      0.20%     87.39% # Histogram of number of active warp inst buffers at a given time
system.gpu.shader_cores0.lsq.warpInstBufActive::36        90027      0.80%     88.20% # Histogram of number of active warp inst buffers at a given time
system.gpu.shader_cores0.lsq.warpInstBufActive::37        25722      0.23%     88.43% # Histogram of number of active warp inst buffers at a given time
system.gpu.shader_cores0.lsq.warpInstBufActive::38        87169      0.78%     89.20% # Histogram of number of active warp inst buffers at a given time
system.gpu.shader_cores0.lsq.warpInstBufActive::39         8574      0.08%     89.28% # Histogram of number of active warp inst buffers at a given time
system.gpu.shader_cores0.lsq.warpInstBufActive::40        11432      0.10%     89.38% # Histogram of number of active warp inst buffers at a given time
system.gpu.shader_cores0.lsq.warpInstBufActive::41        31438      0.28%     89.66% # Histogram of number of active warp inst buffers at a given time
system.gpu.shader_cores0.lsq.warpInstBufActive::42        48586      0.43%     90.10% # Histogram of number of active warp inst buffers at a given time
system.gpu.shader_cores0.lsq.warpInstBufActive::43        60018      0.54%     90.63% # Histogram of number of active warp inst buffers at a given time
system.gpu.shader_cores0.lsq.warpInstBufActive::44        41441      0.37%     91.00% # Histogram of number of active warp inst buffers at a given time
system.gpu.shader_cores0.lsq.warpInstBufActive::45        37154      0.33%     91.33% # Histogram of number of active warp inst buffers at a given time
system.gpu.shader_cores0.lsq.warpInstBufActive::46        22864      0.20%     91.54% # Histogram of number of active warp inst buffers at a given time
system.gpu.shader_cores0.lsq.warpInstBufActive::47        28580      0.25%     91.79% # Histogram of number of active warp inst buffers at a given time
system.gpu.shader_cores0.lsq.warpInstBufActive::48        25722      0.23%     92.02% # Histogram of number of active warp inst buffers at a given time
system.gpu.shader_cores0.lsq.warpInstBufActive::49        41441      0.37%     92.39% # Histogram of number of active warp inst buffers at a given time
system.gpu.shader_cores0.lsq.warpInstBufActive::50        37154      0.33%     92.72% # Histogram of number of active warp inst buffers at a given time
system.gpu.shader_cores0.lsq.warpInstBufActive::51        18577      0.17%     92.89% # Histogram of number of active warp inst buffers at a given time
system.gpu.shader_cores0.lsq.warpInstBufActive::52        21435      0.19%     93.08% # Histogram of number of active warp inst buffers at a given time
system.gpu.shader_cores0.lsq.warpInstBufActive::53       192915      1.72%     94.80% # Histogram of number of active warp inst buffers at a given time
system.gpu.shader_cores0.lsq.warpInstBufActive::54        20006      0.18%     94.98% # Histogram of number of active warp inst buffers at a given time
system.gpu.shader_cores0.lsq.warpInstBufActive::55        15719      0.14%     95.12% # Histogram of number of active warp inst buffers at a given time
system.gpu.shader_cores0.lsq.warpInstBufActive::56        38583      0.34%     95.46% # Histogram of number of active warp inst buffers at a given time
system.gpu.shader_cores0.lsq.warpInstBufActive::57        51444      0.46%     95.92% # Histogram of number of active warp inst buffers at a given time
system.gpu.shader_cores0.lsq.warpInstBufActive::58        75737      0.68%     96.60% # Histogram of number of active warp inst buffers at a given time
system.gpu.shader_cores0.lsq.warpInstBufActive::59        34296      0.31%     96.90% # Histogram of number of active warp inst buffers at a given time
system.gpu.shader_cores0.lsq.warpInstBufActive::60        60018      0.54%     97.44% # Histogram of number of active warp inst buffers at a given time
system.gpu.shader_cores0.lsq.warpInstBufActive::61        48586      0.43%     97.87% # Histogram of number of active warp inst buffers at a given time
system.gpu.shader_cores0.lsq.warpInstBufActive::62        24293      0.22%     98.09% # Histogram of number of active warp inst buffers at a given time
system.gpu.shader_cores0.lsq.warpInstBufActive::63        18577      0.17%     98.25% # Histogram of number of active warp inst buffers at a given time
system.gpu.shader_cores0.lsq.warpInstBufActive::64       195773      1.75%    100.00% # Histogram of number of active warp inst buffers at a given time
system.gpu.shader_cores0.lsq.warpInstBufActive::total     11210505                       # Histogram of number of active warp inst buffers at a given time
system.gpu.shader_cores0.lsq.cacheAccesses     0.010746                       # Average number of concurrent outstanding cache accesses
system.gpu.shader_cores0.lsq.writebackBlockedCycles           99                       # Number of cycles blocked for core writeback stage
system.gpu.shader_cores0.lsq.mshrHitQueued          327                       # Number of hits on blocked lines in MSHRs
system.gpu.shader_cores0.lsq.mshrsFullCycles            0                       # Number of cycles stalled waiting for an MSHR
system.gpu.shader_cores0.lsq.mshrsFullCount            0                       # Number of times MSHRs filled
system.gpu.shader_cores0.lsq.warpCoalescedAccesses::samples          416                       # Number of coalesced accesses per warp instruction
system.gpu.shader_cores0.lsq.warpCoalescedAccesses::mean     1.769231                       # Number of coalesced accesses per warp instruction
system.gpu.shader_cores0.lsq.warpCoalescedAccesses::gmean     1.608176                       # Number of coalesced accesses per warp instruction
system.gpu.shader_cores0.lsq.warpCoalescedAccesses::stdev     0.763388                       # Number of coalesced accesses per warp instruction
system.gpu.shader_cores0.lsq.warpCoalescedAccesses::0            0      0.00%      0.00% # Number of coalesced accesses per warp instruction
system.gpu.shader_cores0.lsq.warpCoalescedAccesses::1          180     43.27%     43.27% # Number of coalesced accesses per warp instruction
system.gpu.shader_cores0.lsq.warpCoalescedAccesses::2          152     36.54%     79.81% # Number of coalesced accesses per warp instruction
system.gpu.shader_cores0.lsq.warpCoalescedAccesses::3           84     20.19%    100.00% # Number of coalesced accesses per warp instruction
system.gpu.shader_cores0.lsq.warpCoalescedAccesses::4            0      0.00%    100.00% # Number of coalesced accesses per warp instruction
system.gpu.shader_cores0.lsq.warpCoalescedAccesses::5            0      0.00%    100.00% # Number of coalesced accesses per warp instruction
system.gpu.shader_cores0.lsq.warpCoalescedAccesses::6            0      0.00%    100.00% # Number of coalesced accesses per warp instruction
system.gpu.shader_cores0.lsq.warpCoalescedAccesses::7            0      0.00%    100.00% # Number of coalesced accesses per warp instruction
system.gpu.shader_cores0.lsq.warpCoalescedAccesses::8            0      0.00%    100.00% # Number of coalesced accesses per warp instruction
system.gpu.shader_cores0.lsq.warpCoalescedAccesses::9            0      0.00%    100.00% # Number of coalesced accesses per warp instruction
system.gpu.shader_cores0.lsq.warpCoalescedAccesses::10            0      0.00%    100.00% # Number of coalesced accesses per warp instruction
system.gpu.shader_cores0.lsq.warpCoalescedAccesses::11            0      0.00%    100.00% # Number of coalesced accesses per warp instruction
system.gpu.shader_cores0.lsq.warpCoalescedAccesses::12            0      0.00%    100.00% # Number of coalesced accesses per warp instruction
system.gpu.shader_cores0.lsq.warpCoalescedAccesses::13            0      0.00%    100.00% # Number of coalesced accesses per warp instruction
system.gpu.shader_cores0.lsq.warpCoalescedAccesses::14            0      0.00%    100.00% # Number of coalesced accesses per warp instruction
system.gpu.shader_cores0.lsq.warpCoalescedAccesses::15            0      0.00%    100.00% # Number of coalesced accesses per warp instruction
system.gpu.shader_cores0.lsq.warpCoalescedAccesses::16            0      0.00%    100.00% # Number of coalesced accesses per warp instruction
system.gpu.shader_cores0.lsq.warpCoalescedAccesses::17            0      0.00%    100.00% # Number of coalesced accesses per warp instruction
system.gpu.shader_cores0.lsq.warpCoalescedAccesses::18            0      0.00%    100.00% # Number of coalesced accesses per warp instruction
system.gpu.shader_cores0.lsq.warpCoalescedAccesses::19            0      0.00%    100.00% # Number of coalesced accesses per warp instruction
system.gpu.shader_cores0.lsq.warpCoalescedAccesses::20            0      0.00%    100.00% # Number of coalesced accesses per warp instruction
system.gpu.shader_cores0.lsq.warpCoalescedAccesses::21            0      0.00%    100.00% # Number of coalesced accesses per warp instruction
system.gpu.shader_cores0.lsq.warpCoalescedAccesses::22            0      0.00%    100.00% # Number of coalesced accesses per warp instruction
system.gpu.shader_cores0.lsq.warpCoalescedAccesses::23            0      0.00%    100.00% # Number of coalesced accesses per warp instruction
system.gpu.shader_cores0.lsq.warpCoalescedAccesses::24            0      0.00%    100.00% # Number of coalesced accesses per warp instruction
system.gpu.shader_cores0.lsq.warpCoalescedAccesses::25            0      0.00%    100.00% # Number of coalesced accesses per warp instruction
system.gpu.shader_cores0.lsq.warpCoalescedAccesses::26            0      0.00%    100.00% # Number of coalesced accesses per warp instruction
system.gpu.shader_cores0.lsq.warpCoalescedAccesses::27            0      0.00%    100.00% # Number of coalesced accesses per warp instruction
system.gpu.shader_cores0.lsq.warpCoalescedAccesses::28            0      0.00%    100.00% # Number of coalesced accesses per warp instruction
system.gpu.shader_cores0.lsq.warpCoalescedAccesses::29            0      0.00%    100.00% # Number of coalesced accesses per warp instruction
system.gpu.shader_cores0.lsq.warpCoalescedAccesses::30            0      0.00%    100.00% # Number of coalesced accesses per warp instruction
system.gpu.shader_cores0.lsq.warpCoalescedAccesses::31            0      0.00%    100.00% # Number of coalesced accesses per warp instruction
system.gpu.shader_cores0.lsq.warpCoalescedAccesses::32            0      0.00%    100.00% # Number of coalesced accesses per warp instruction
system.gpu.shader_cores0.lsq.warpCoalescedAccesses::total          416                       # Number of coalesced accesses per warp instruction
system.gpu.shader_cores0.lsq.warpLatencyRead::samples          288                       # Latency in cycles for whole warp to finish the read
system.gpu.shader_cores0.lsq.warpLatencyRead::mean   247.579861                       # Latency in cycles for whole warp to finish the read
system.gpu.shader_cores0.lsq.warpLatencyRead::gmean    94.328136                       # Latency in cycles for whole warp to finish the read
system.gpu.shader_cores0.lsq.warpLatencyRead::stdev   254.623711                       # Latency in cycles for whole warp to finish the read
system.gpu.shader_cores0.lsq.warpLatencyRead::0-63          109     37.85%     37.85% # Latency in cycles for whole warp to finish the read
system.gpu.shader_cores0.lsq.warpLatencyRead::64-127           15      5.21%     43.06% # Latency in cycles for whole warp to finish the read
system.gpu.shader_cores0.lsq.warpLatencyRead::128-191           37     12.85%     55.90% # Latency in cycles for whole warp to finish the read
system.gpu.shader_cores0.lsq.warpLatencyRead::192-255           19      6.60%     62.50% # Latency in cycles for whole warp to finish the read
system.gpu.shader_cores0.lsq.warpLatencyRead::256-319           11      3.82%     66.32% # Latency in cycles for whole warp to finish the read
system.gpu.shader_cores0.lsq.warpLatencyRead::320-383            9      3.12%     69.44% # Latency in cycles for whole warp to finish the read
system.gpu.shader_cores0.lsq.warpLatencyRead::384-447           14      4.86%     74.31% # Latency in cycles for whole warp to finish the read
system.gpu.shader_cores0.lsq.warpLatencyRead::448-511           18      6.25%     80.56% # Latency in cycles for whole warp to finish the read
system.gpu.shader_cores0.lsq.warpLatencyRead::512-575           20      6.94%     87.50% # Latency in cycles for whole warp to finish the read
system.gpu.shader_cores0.lsq.warpLatencyRead::576-639           14      4.86%     92.36% # Latency in cycles for whole warp to finish the read
system.gpu.shader_cores0.lsq.warpLatencyRead::640-703            7      2.43%     94.79% # Latency in cycles for whole warp to finish the read
system.gpu.shader_cores0.lsq.warpLatencyRead::704-767            2      0.69%     95.49% # Latency in cycles for whole warp to finish the read
system.gpu.shader_cores0.lsq.warpLatencyRead::768-831            2      0.69%     96.18% # Latency in cycles for whole warp to finish the read
system.gpu.shader_cores0.lsq.warpLatencyRead::832-895            4      1.39%     97.57% # Latency in cycles for whole warp to finish the read
system.gpu.shader_cores0.lsq.warpLatencyRead::896-959            7      2.43%    100.00% # Latency in cycles for whole warp to finish the read
system.gpu.shader_cores0.lsq.warpLatencyRead::960-1023            0      0.00%    100.00% # Latency in cycles for whole warp to finish the read
system.gpu.shader_cores0.lsq.warpLatencyRead::total          288                       # Latency in cycles for whole warp to finish the read
system.gpu.shader_cores0.lsq.warpLatencyWrite::samples          128                       # Latency in cycles for whole warp to finish the write
system.gpu.shader_cores0.lsq.warpLatencyWrite::mean   367.906250                       # Latency in cycles for whole warp to finish the write
system.gpu.shader_cores0.lsq.warpLatencyWrite::gmean   328.257598                       # Latency in cycles for whole warp to finish the write
system.gpu.shader_cores0.lsq.warpLatencyWrite::stdev   170.973887                       # Latency in cycles for whole warp to finish the write
system.gpu.shader_cores0.lsq.warpLatencyWrite::0-63            0      0.00%      0.00% # Latency in cycles for whole warp to finish the write
system.gpu.shader_cores0.lsq.warpLatencyWrite::64-127            1      0.78%      0.78% # Latency in cycles for whole warp to finish the write
system.gpu.shader_cores0.lsq.warpLatencyWrite::128-191           20     15.62%     16.41% # Latency in cycles for whole warp to finish the write
system.gpu.shader_cores0.lsq.warpLatencyWrite::192-255           30     23.44%     39.84% # Latency in cycles for whole warp to finish the write
system.gpu.shader_cores0.lsq.warpLatencyWrite::256-319           14     10.94%     50.78% # Latency in cycles for whole warp to finish the write
system.gpu.shader_cores0.lsq.warpLatencyWrite::320-383            9      7.03%     57.81% # Latency in cycles for whole warp to finish the write
system.gpu.shader_cores0.lsq.warpLatencyWrite::384-447            5      3.91%     61.72% # Latency in cycles for whole warp to finish the write
system.gpu.shader_cores0.lsq.warpLatencyWrite::448-511           12      9.38%     71.09% # Latency in cycles for whole warp to finish the write
system.gpu.shader_cores0.lsq.warpLatencyWrite::512-575           14     10.94%     82.03% # Latency in cycles for whole warp to finish the write
system.gpu.shader_cores0.lsq.warpLatencyWrite::576-639           19     14.84%     96.88% # Latency in cycles for whole warp to finish the write
system.gpu.shader_cores0.lsq.warpLatencyWrite::640-703            2      1.56%     98.44% # Latency in cycles for whole warp to finish the write
system.gpu.shader_cores0.lsq.warpLatencyWrite::704-767            2      1.56%    100.00% # Latency in cycles for whole warp to finish the write
system.gpu.shader_cores0.lsq.warpLatencyWrite::768-831            0      0.00%    100.00% # Latency in cycles for whole warp to finish the write
system.gpu.shader_cores0.lsq.warpLatencyWrite::832-895            0      0.00%    100.00% # Latency in cycles for whole warp to finish the write
system.gpu.shader_cores0.lsq.warpLatencyWrite::896-959            0      0.00%    100.00% # Latency in cycles for whole warp to finish the write
system.gpu.shader_cores0.lsq.warpLatencyWrite::960-1023            0      0.00%    100.00% # Latency in cycles for whole warp to finish the write
system.gpu.shader_cores0.lsq.warpLatencyWrite::total          128                       # Latency in cycles for whole warp to finish the write
system.gpu.shader_cores0.lsq.warpLatencyFence::samples          288                       # Latency in cycles for whole warp to finish the fence
system.gpu.shader_cores0.lsq.warpLatencyFence::mean    74.201389                       # Latency in cycles for whole warp to finish the fence
system.gpu.shader_cores0.lsq.warpLatencyFence::gmean    14.398438                       # Latency in cycles for whole warp to finish the fence
system.gpu.shader_cores0.lsq.warpLatencyFence::stdev   149.451381                       # Latency in cycles for whole warp to finish the fence
system.gpu.shader_cores0.lsq.warpLatencyFence::0-63          224     77.78%     77.78% # Latency in cycles for whole warp to finish the fence
system.gpu.shader_cores0.lsq.warpLatencyFence::64-127            0      0.00%     77.78% # Latency in cycles for whole warp to finish the fence
system.gpu.shader_cores0.lsq.warpLatencyFence::128-191           16      5.56%     83.33% # Latency in cycles for whole warp to finish the fence
system.gpu.shader_cores0.lsq.warpLatencyFence::192-255           25      8.68%     92.01% # Latency in cycles for whole warp to finish the fence
system.gpu.shader_cores0.lsq.warpLatencyFence::256-319            3      1.04%     93.06% # Latency in cycles for whole warp to finish the fence
system.gpu.shader_cores0.lsq.warpLatencyFence::320-383            1      0.35%     93.40% # Latency in cycles for whole warp to finish the fence
system.gpu.shader_cores0.lsq.warpLatencyFence::384-447            1      0.35%     93.75% # Latency in cycles for whole warp to finish the fence
system.gpu.shader_cores0.lsq.warpLatencyFence::448-511            1      0.35%     94.10% # Latency in cycles for whole warp to finish the fence
system.gpu.shader_cores0.lsq.warpLatencyFence::512-575            7      2.43%     96.53% # Latency in cycles for whole warp to finish the fence
system.gpu.shader_cores0.lsq.warpLatencyFence::576-639           10      3.47%    100.00% # Latency in cycles for whole warp to finish the fence
system.gpu.shader_cores0.lsq.warpLatencyFence::640-703            0      0.00%    100.00% # Latency in cycles for whole warp to finish the fence
system.gpu.shader_cores0.lsq.warpLatencyFence::704-767            0      0.00%    100.00% # Latency in cycles for whole warp to finish the fence
system.gpu.shader_cores0.lsq.warpLatencyFence::768-831            0      0.00%    100.00% # Latency in cycles for whole warp to finish the fence
system.gpu.shader_cores0.lsq.warpLatencyFence::832-895            0      0.00%    100.00% # Latency in cycles for whole warp to finish the fence
system.gpu.shader_cores0.lsq.warpLatencyFence::896-959            0      0.00%    100.00% # Latency in cycles for whole warp to finish the fence
system.gpu.shader_cores0.lsq.warpLatencyFence::960-1023            0      0.00%    100.00% # Latency in cycles for whole warp to finish the fence
system.gpu.shader_cores0.lsq.warpLatencyFence::total          288                       # Latency in cycles for whole warp to finish the fence
system.gpu.shader_cores0.lsq.warpLatencyAtomic::samples            0                       # Latency in cycles for whole warp to finish the atomic
system.gpu.shader_cores0.lsq.warpLatencyAtomic::mean          nan                       # Latency in cycles for whole warp to finish the atomic
system.gpu.shader_cores0.lsq.warpLatencyAtomic::gmean          nan                       # Latency in cycles for whole warp to finish the atomic
system.gpu.shader_cores0.lsq.warpLatencyAtomic::stdev          nan                       # Latency in cycles for whole warp to finish the atomic
system.gpu.shader_cores0.lsq.warpLatencyAtomic::0            0                       # Latency in cycles for whole warp to finish the atomic
system.gpu.shader_cores0.lsq.warpLatencyAtomic::1            0                       # Latency in cycles for whole warp to finish the atomic
system.gpu.shader_cores0.lsq.warpLatencyAtomic::2            0                       # Latency in cycles for whole warp to finish the atomic
system.gpu.shader_cores0.lsq.warpLatencyAtomic::3            0                       # Latency in cycles for whole warp to finish the atomic
system.gpu.shader_cores0.lsq.warpLatencyAtomic::4            0                       # Latency in cycles for whole warp to finish the atomic
system.gpu.shader_cores0.lsq.warpLatencyAtomic::5            0                       # Latency in cycles for whole warp to finish the atomic
system.gpu.shader_cores0.lsq.warpLatencyAtomic::6            0                       # Latency in cycles for whole warp to finish the atomic
system.gpu.shader_cores0.lsq.warpLatencyAtomic::7            0                       # Latency in cycles for whole warp to finish the atomic
system.gpu.shader_cores0.lsq.warpLatencyAtomic::8            0                       # Latency in cycles for whole warp to finish the atomic
system.gpu.shader_cores0.lsq.warpLatencyAtomic::9            0                       # Latency in cycles for whole warp to finish the atomic
system.gpu.shader_cores0.lsq.warpLatencyAtomic::10            0                       # Latency in cycles for whole warp to finish the atomic
system.gpu.shader_cores0.lsq.warpLatencyAtomic::11            0                       # Latency in cycles for whole warp to finish the atomic
system.gpu.shader_cores0.lsq.warpLatencyAtomic::12            0                       # Latency in cycles for whole warp to finish the atomic
system.gpu.shader_cores0.lsq.warpLatencyAtomic::13            0                       # Latency in cycles for whole warp to finish the atomic
system.gpu.shader_cores0.lsq.warpLatencyAtomic::14            0                       # Latency in cycles for whole warp to finish the atomic
system.gpu.shader_cores0.lsq.warpLatencyAtomic::15            0                       # Latency in cycles for whole warp to finish the atomic
system.gpu.shader_cores0.lsq.warpLatencyAtomic::total            0                       # Latency in cycles for whole warp to finish the atomic
system.gpu.shader_cores0.lsq.tlbMissLatency::samples            0                       # Latency in cycles for TLB miss
system.gpu.shader_cores0.lsq.tlbMissLatency::mean          nan                       # Latency in cycles for TLB miss
system.gpu.shader_cores0.lsq.tlbMissLatency::gmean          nan                       # Latency in cycles for TLB miss
system.gpu.shader_cores0.lsq.tlbMissLatency::stdev          nan                       # Latency in cycles for TLB miss
system.gpu.shader_cores0.lsq.tlbMissLatency::0            0                       # Latency in cycles for TLB miss
system.gpu.shader_cores0.lsq.tlbMissLatency::1            0                       # Latency in cycles for TLB miss
system.gpu.shader_cores0.lsq.tlbMissLatency::2            0                       # Latency in cycles for TLB miss
system.gpu.shader_cores0.lsq.tlbMissLatency::3            0                       # Latency in cycles for TLB miss
system.gpu.shader_cores0.lsq.tlbMissLatency::4            0                       # Latency in cycles for TLB miss
system.gpu.shader_cores0.lsq.tlbMissLatency::5            0                       # Latency in cycles for TLB miss
system.gpu.shader_cores0.lsq.tlbMissLatency::6            0                       # Latency in cycles for TLB miss
system.gpu.shader_cores0.lsq.tlbMissLatency::7            0                       # Latency in cycles for TLB miss
system.gpu.shader_cores0.lsq.tlbMissLatency::8            0                       # Latency in cycles for TLB miss
system.gpu.shader_cores0.lsq.tlbMissLatency::9            0                       # Latency in cycles for TLB miss
system.gpu.shader_cores0.lsq.tlbMissLatency::10            0                       # Latency in cycles for TLB miss
system.gpu.shader_cores0.lsq.tlbMissLatency::11            0                       # Latency in cycles for TLB miss
system.gpu.shader_cores0.lsq.tlbMissLatency::12            0                       # Latency in cycles for TLB miss
system.gpu.shader_cores0.lsq.tlbMissLatency::13            0                       # Latency in cycles for TLB miss
system.gpu.shader_cores0.lsq.tlbMissLatency::14            0                       # Latency in cycles for TLB miss
system.gpu.shader_cores0.lsq.tlbMissLatency::15            0                       # Latency in cycles for TLB miss
system.gpu.shader_cores0.lsq.tlbMissLatency::total            0                       # Latency in cycles for TLB miss
system.gpu.shader_cores1.itb.hits                   0                       # Number of hits in this TLB
system.gpu.shader_cores1.itb.misses                 0                       # Number of misses in this TLB
system.gpu.shader_cores1.itb.hitRate              nan                       # Hit rate for this TLB
system.gpu.shader_cores1.local_loads                0                       # Number of loads from local space
system.gpu.shader_cores1.local_stores               0                       # Number of stores to local space
system.gpu.shader_cores1.shared_loads            5056                       # Number of loads from shared space
system.gpu.shader_cores1.shared_stores           3072                       # Number of stores to shared space
system.gpu.shader_cores1.param_kernel_loads         7296                       # Number of loads from kernel parameter space
system.gpu.shader_cores1.param_local_loads            0                       # Number of loads from local parameter space
system.gpu.shader_cores1.param_local_stores            0                       # Number of stores to local parameter space
system.gpu.shader_cores1.const_loads                0                       # Number of loads from constant space
system.gpu.shader_cores1.tex_loads                  0                       # Number of loads from texture space
system.gpu.shader_cores1.global_loads            8336                       # Number of loads from global space
system.gpu.shader_cores1.global_stores           3168                       # Number of stores to global space
system.gpu.shader_cores1.surf_loads                 0                       # Number of loads from surface space
system.gpu.shader_cores1.generic_loads              0                       # Number of loads from generic spaces (global, shared, local)
system.gpu.shader_cores1.generic_stores             0                       # Number of stores to generic spaces (global, shared, local)
system.gpu.shader_cores1.inst_cache_requests           13                       # Number of instruction cache requests sent
system.gpu.shader_cores1.inst_cache_retries            0                       # Number of instruction cache retries
[...]
system.ruby.Directory_Controller.NO_DR_B_D.Shared_Ack            1      0.00%      0.00%
system.ruby.Directory_Controller.NO_DR_B_D.Shared_Data           15      0.00%      0.00%
system.ruby.Directory_Controller.NO_DR_B_D.Exclusive_Data          430      0.00%      0.00%
system.ruby.Directory_Controller.NO_DR_B_D.All_acks_and_shared_data           15      0.00%      0.00%
system.ruby.Directory_Controller.NO_DR_B_D.All_acks_and_data_no_sharers          430      0.00%      0.00%
system.ruby.Directory_Controller.NO_DR_B.All_acks_and_data_no_sharers          132      0.00%      0.00%
system.ruby.Directory_Controller.NO_DW_W.Memory_Ack          576      0.00%      0.00%
system.ruby.L1Cache_Controller.Load      |     1240460    100.00%    100.00% |           0      0.00%    100.00%
system.ruby.L1Cache_Controller.Load::total      1240460                      
system.ruby.L1Cache_Controller.Ifetch    |     6665111    100.00%    100.00% |           0      0.00%    100.00%
system.ruby.L1Cache_Controller.Ifetch::total      6665111                      
system.ruby.L1Cache_Controller.Store     |      845549    100.00%    100.00% |           0      0.00%    100.00%
system.ruby.L1Cache_Controller.Store::total       845549                      
system.ruby.L1Cache_Controller.L1_to_L2  |        6217    100.00%    100.00% |           0      0.00%    100.00%
system.ruby.L1Cache_Controller.L1_to_L2::total         6217                      
system.ruby.L1Cache_Controller.Trigger_L2_to_L1D |         519    100.00%    100.00% |           0      0.00%    100.00%
system.ruby.L1Cache_Controller.Trigger_L2_to_L1D::total          519                      
system.ruby.L1Cache_Controller.Trigger_L2_to_L1I |        5070    100.00%    100.00% |           0      0.00%    100.00%
system.ruby.L1Cache_Controller.Trigger_L2_to_L1I::total         5070                      
system.ruby.L1Cache_Controller.Complete_L2_to_L1 |        5589    100.00%    100.00% |           0      0.00%    100.00%
system.ruby.L1Cache_Controller.Complete_L2_to_L1::total         5589                      
system.ruby.L1Cache_Controller.Other_GETX |         584     29.55%     29.55% |        1392     70.45%    100.00%
system.ruby.L1Cache_Controller.Other_GETX::total         1976                      
system.ruby.L1Cache_Controller.Other_GETS |        1011     37.63%     37.63% |        1676     62.37%    100.00%
system.ruby.L1Cache_Controller.Other_GETS::total         2687                      
system.ruby.L1Cache_Controller.Ack       |        2938    100.00%    100.00% |           0      0.00%    100.00%
system.ruby.L1Cache_Controller.Ack::total         2938                      
system.ruby.L1Cache_Controller.Data      |           3    100.00%    100.00% |           0      0.00%    100.00%
system.ruby.L1Cache_Controller.Data::total            3                      
system.ruby.L1Cache_Controller.Shared_Data |           2    100.00%    100.00% |           0      0.00%    100.00%
system.ruby.L1Cache_Controller.Shared_Data::total            2                      
system.ruby.L1Cache_Controller.Exclusive_Data |        1468    100.00%    100.00% |           0      0.00%    100.00%
system.ruby.L1Cache_Controller.Exclusive_Data::total         1468                      
system.ruby.L1Cache_Controller.All_acks  |           2    100.00%    100.00% |           0      0.00%    100.00%
system.ruby.L1Cache_Controller.All_acks::total            2                      
system.ruby.L1Cache_Controller.All_acks_no_sharers |        1471    100.00%    100.00% |           0      0.00%    100.00%
system.ruby.L1Cache_Controller.All_acks_no_sharers::total         1471                      
system.ruby.L1Cache_Controller.I.Load    |         161    100.00%    100.00% |           0      0.00%    100.00%
system.ruby.L1Cache_Controller.I.Load::total          161                      
system.ruby.L1Cache_Controller.I.Ifetch  |         460    100.00%    100.00% |           0      0.00%    100.00%
system.ruby.L1Cache_Controller.I.Ifetch::total          460                      
system.ruby.L1Cache_Controller.I.Store   |         806    100.00%    100.00% |           0      0.00%    100.00%
system.ruby.L1Cache_Controller.I.Store::total          806                      
system.ruby.L1Cache_Controller.I.L1_to_L2 |         107    100.00%    100.00% |           0      0.00%    100.00%
system.ruby.L1Cache_Controller.I.L1_to_L2::total          107                      
system.ruby.L1Cache_Controller.I.Trigger_L2_to_L1D |          44    100.00%    100.00% |           0      0.00%    100.00%
system.ruby.L1Cache_Controller.I.Trigger_L2_to_L1D::total           44                      
system.ruby.L1Cache_Controller.I.Other_GETX |         556     28.54%     28.54% |        1392     71.46%    100.00%
system.ruby.L1Cache_Controller.I.Other_GETX::total         1948                      
system.ruby.L1Cache_Controller.I.Other_GETS |         718     29.99%     29.99% |        1676     70.01%    100.00%
system.ruby.L1Cache_Controller.I.Other_GETS::total         2394                      
system.ruby.L1Cache_Controller.S.Load    |           2    100.00%    100.00% |           0      0.00%    100.00%
system.ruby.L1Cache_Controller.S.Load::total            2                      
system.ruby.L1Cache_Controller.S.Store   |           2    100.00%    100.00% |           0      0.00%    100.00%
system.ruby.L1Cache_Controller.S.Store::total            2                      
system.ruby.L1Cache_Controller.S.Other_GETS |           1    100.00%    100.00% |           0      0.00%    100.00%
system.ruby.L1Cache_Controller.S.Other_GETS::total            1                      
system.ruby.L1Cache_Controller.O.Load    |           6    100.00%    100.00% |           0      0.00%    100.00%
system.ruby.L1Cache_Controller.O.Load::total            6                      
system.ruby.L1Cache_Controller.O.Other_GETX |           5    100.00%    100.00% |           0      0.00%    100.00%
system.ruby.L1Cache_Controller.O.Other_GETX::total            5                      
system.ruby.L1Cache_Controller.O.Other_GETS |           1    100.00%    100.00% |           0      0.00%    100.00%
system.ruby.L1Cache_Controller.O.Other_GETS::total            1                      
system.ruby.L1Cache_Controller.M.Load    |      103169    100.00%    100.00% |           0      0.00%    100.00%
system.ruby.L1Cache_Controller.M.Load::total       103169                      
system.ruby.L1Cache_Controller.M.Ifetch  |     6659581    100.00%    100.00% |           0      0.00%    100.00%
system.ruby.L1Cache_Controller.M.Ifetch::total      6659581                      
system.ruby.L1Cache_Controller.M.Store   |          31    100.00%    100.00% |           0      0.00%    100.00%
system.ruby.L1Cache_Controller.M.Store::total           31                      
system.ruby.L1Cache_Controller.M.L1_to_L2 |        5409    100.00%    100.00% |           0      0.00%    100.00%
system.ruby.L1Cache_Controller.M.L1_to_L2::total         5409                      
system.ruby.L1Cache_Controller.M.Trigger_L2_to_L1D |          22    100.00%    100.00% |           0      0.00%    100.00%
system.ruby.L1Cache_Controller.M.Trigger_L2_to_L1D::total           22                      
system.ruby.L1Cache_Controller.M.Trigger_L2_to_L1I |        5070    100.00%    100.00% |           0      0.00%    100.00%
system.ruby.L1Cache_Controller.M.Trigger_L2_to_L1I::total         5070                      
system.ruby.L1Cache_Controller.M.Other_GETX |          15    100.00%    100.00% |           0      0.00%    100.00%
system.ruby.L1Cache_Controller.M.Other_GETX::total           15                      
system.ruby.L1Cache_Controller.M.Other_GETS |           6    100.00%    100.00% |           0      0.00%    100.00%
system.ruby.L1Cache_Controller.M.Other_GETS::total            6                      
system.ruby.L1Cache_Controller.MM.Load   |     1136625    100.00%    100.00% |           0      0.00%    100.00%
system.ruby.L1Cache_Controller.MM.Load::total      1136625                      
system.ruby.L1Cache_Controller.MM.Store  |      844688    100.00%    100.00% |           0      0.00%    100.00%
system.ruby.L1Cache_Controller.MM.Store::total       844688                      
system.ruby.L1Cache_Controller.MM.L1_to_L2 |         701    100.00%    100.00% |           0      0.00%    100.00%
system.ruby.L1Cache_Controller.MM.L1_to_L2::total          701                      
system.ruby.L1Cache_Controller.MM.Trigger_L2_to_L1D |         453    100.00%    100.00% |           0      0.00%    100.00%
system.ruby.L1Cache_Controller.MM.Trigger_L2_to_L1D::total          453                      
system.ruby.L1Cache_Controller.MM.Other_GETX |           8    100.00%    100.00% |           0      0.00%    100.00%
system.ruby.L1Cache_Controller.MM.Other_GETX::total            8                      
system.ruby.L1Cache_Controller.MM.Other_GETS |         285    100.00%    100.00% |           0      0.00%    100.00%
system.ruby.L1Cache_Controller.MM.Other_GETS::total          285                      
system.ruby.L1Cache_Controller.IR.Load   |          44    100.00%    100.00% |           0      0.00%    100.00%
system.ruby.L1Cache_Controller.IR.Load::total           44                      
system.ruby.L1Cache_Controller.MR.Load   |          21    100.00%    100.00% |           0      0.00%    100.00%
system.ruby.L1Cache_Controller.MR.Load::total           21                      
system.ruby.L1Cache_Controller.MR.Ifetch |        5070    100.00%    100.00% |           0      0.00%    100.00%
system.ruby.L1Cache_Controller.MR.Ifetch::total         5070                      
system.ruby.L1Cache_Controller.MR.Store  |           1    100.00%    100.00% |           0      0.00%    100.00%
system.ruby.L1Cache_Controller.MR.Store::total            1                      
system.ruby.L1Cache_Controller.MMR.Load  |         432    100.00%    100.00% |           0      0.00%    100.00%
system.ruby.L1Cache_Controller.MMR.Load::total          432                      
system.ruby.L1Cache_Controller.MMR.Store |          21    100.00%    100.00% |           0      0.00%    100.00%
system.ruby.L1Cache_Controller.MMR.Store::total           21                      
system.ruby.L1Cache_Controller.IM.Ack    |        1610    100.00%    100.00% |           0      0.00%    100.00%
system.ruby.L1Cache_Controller.IM.Ack::total         1610                      
system.ruby.L1Cache_Controller.IM.Data   |           1    100.00%    100.00% |           0      0.00%    100.00%
system.ruby.L1Cache_Controller.IM.Data::total            1                      
system.ruby.L1Cache_Controller.IM.Exclusive_Data |         805    100.00%    100.00% |           0      0.00%    100.00%
system.ruby.L1Cache_Controller.IM.Exclusive_Data::total          805                      
system.ruby.L1Cache_Controller.SM.Ack    |           2    100.00%    100.00% |           0      0.00%    100.00%
system.ruby.L1Cache_Controller.SM.Ack::total            2                      
system.ruby.L1Cache_Controller.SM.Data   |           2    100.00%    100.00% |           0      0.00%    100.00%
system.ruby.L1Cache_Controller.SM.Data::total            2                      
system.ruby.L1Cache_Controller.ISM.All_acks_no_sharers |           3    100.00%    100.00% |           0      0.00%    100.00%
system.ruby.L1Cache_Controller.ISM.All_acks_no_sharers::total            3                      
system.ruby.L1Cache_Controller.M_W.All_acks_no_sharers |         663    100.00%    100.00% |           0      0.00%    100.00%
system.ruby.L1Cache_Controller.M_W.All_acks_no_sharers::total          663                      
system.ruby.L1Cache_Controller.MM_W.All_acks_no_sharers |         805    100.00%    100.00% |           0      0.00%    100.00%
system.ruby.L1Cache_Controller.MM_W.All_acks_no_sharers::total          805                      
system.ruby.L1Cache_Controller.IS.Ack    |        1326    100.00%    100.00% |           0      0.00%    100.00%
system.ruby.L1Cache_Controller.IS.Ack::total         1326                      
system.ruby.L1Cache_Controller.IS.Shared_Data |           2    100.00%    100.00% |           0      0.00%    100.00%
system.ruby.L1Cache_Controller.IS.Shared_Data::total            2                      
system.ruby.L1Cache_Controller.IS.Exclusive_Data |         663    100.00%    100.00% |           0      0.00%    100.00%
system.ruby.L1Cache_Controller.IS.Exclusive_Data::total          663                      
system.ruby.L1Cache_Controller.SS.All_acks |           2    100.00%    100.00% |           0      0.00%    100.00%
system.ruby.L1Cache_Controller.SS.All_acks::total            2                      
system.ruby.L1Cache_Controller.IT.Complete_L2_to_L1 |          44    100.00%    100.00% |           0      0.00%    100.00%
system.ruby.L1Cache_Controller.IT.Complete_L2_to_L1::total           44                      
system.ruby.L1Cache_Controller.MT.Complete_L2_to_L1 |        5092    100.00%    100.00% |           0      0.00%    100.00%
system.ruby.L1Cache_Controller.MT.Complete_L2_to_L1::total         5092                      
system.ruby.L1Cache_Controller.MMT.Complete_L2_to_L1 |         453    100.00%    100.00% |           0      0.00%    100.00%
system.ruby.L1Cache_Controller.MMT.Complete_L2_to_L1::total          453                      
system.ruby.GPUCopyDMA_Controller.ReadRequest          577      0.00%      0.00%
system.ruby.GPUCopyDMA_Controller.WriteRequest          576      0.00%      0.00%
system.ruby.GPUCopyDMA_Controller.Data            577      0.00%      0.00%
system.ruby.GPUCopyDMA_Controller.Ack             576      0.00%      0.00%
system.ruby.GPUCopyDMA_Controller.READY.ReadRequest          577      0.00%      0.00%
system.ruby.GPUCopyDMA_Controller.READY.WriteRequest          576      0.00%      0.00%
system.ruby.GPUCopyDMA_Controller.BUSY_RD.Data          577      0.00%      0.00%
system.ruby.GPUCopyDMA_Controller.BUSY_WR.Ack          576      0.00%      0.00%
system.ruby.GPUL1Cache_Controller.Load   |         428     25.28%     25.28% |         421     24.87%     50.15% |         428     25.28%     75.43% |         416     24.57%    100.00%
system.ruby.GPUL1Cache_Controller.Load::total         1693                      
system.ruby.GPUL1Cache_Controller.Ifetch |          12     24.49%     24.49% |          13     26.53%     51.02% |          12     24.49%     75.51% |          12     24.49%    100.00%
system.ruby.GPUL1Cache_Controller.Ifetch::total           49                      
system.ruby.GPUL1Cache_Controller.Store  |         308     24.48%     24.48% |         322     25.60%     50.08% |         308     24.48%     74.56% |         320     25.44%    100.00%
system.ruby.GPUL1Cache_Controller.Store::total         1258                      
system.ruby.GPUL1Cache_Controller.Data   |         151     24.08%     24.08% |         163     26.00%     50.08% |         152     24.24%     74.32% |         161     25.68%    100.00%
system.ruby.GPUL1Cache_Controller.Data::total          627                      
system.ruby.GPUL1Cache_Controller.Write_Ack |         308     24.48%     24.48% |         322     25.60%     50.08% |         308     24.48%     74.56% |         320     25.44%    100.00%
system.ruby.GPUL1Cache_Controller.Write_Ack::total         1258                      
system.ruby.GPUL1Cache_Controller.I.Load |         139     24.05%     24.05% |         150     25.95%     50.00% |         140     24.22%     74.22% |         149     25.78%    100.00%
system.ruby.GPUL1Cache_Controller.I.Load::total          578                      
system.ruby.GPUL1Cache_Controller.I.Ifetch |          12     24.49%     24.49% |          13     26.53%     51.02% |          12     24.49%     75.51% |          12     24.49%    100.00%
system.ruby.GPUL1Cache_Controller.I.Ifetch::total           49                      
system.ruby.GPUL1Cache_Controller.I.Store |         178     25.14%     25.14% |         177     25.00%     50.14% |         177     25.00%     75.14% |         176     24.86%    100.00%
system.ruby.GPUL1Cache_Controller.I.Store::total          708                      
system.ruby.GPUL1Cache_Controller.V.Load |         289     25.92%     25.92% |         271     24.30%     50.22% |         288     25.83%     76.05% |         267     23.95%    100.00%
system.ruby.GPUL1Cache_Controller.V.Load::total         1115                      
system.ruby.GPUL1Cache_Controller.V.Store |         130     23.64%     23.64% |         145     26.36%     50.00% |         131     23.82%     73.82% |         144     26.18%    100.00%
system.ruby.GPUL1Cache_Controller.V.Store::total          550                      
system.ruby.GPUL1Cache_Controller.IA.Write_Ack |         308     24.48%     24.48% |         322     25.60%     50.08% |         308     24.48%     74.56% |         320     25.44%    100.00%
system.ruby.GPUL1Cache_Controller.IA.Write_Ack::total         1258                      
system.ruby.GPUL1Cache_Controller.IV.Data |         151     24.08%     24.08% |         163     26.00%     50.08% |         152     24.24%     74.32% |         161     25.68%    100.00%
system.ruby.GPUL1Cache_Controller.IV.Data::total          627                      
system.ruby.GPUL2Cache_Controller.Get             726      0.00%      0.00%
system.ruby.GPUL2Cache_Controller.Store          1266      0.00%      0.00%
system.ruby.GPUL2Cache_Controller.Other_GETX         1384      0.00%      0.00%
system.ruby.GPUL2Cache_Controller.Other_GETS         1242      0.00%      0.00%
system.ruby.GPUL2Cache_Controller.Ack             881      0.00%      0.00%
system.ruby.GPUL2Cache_Controller.Shared_Data            1      0.00%      0.00%
system.ruby.GPUL2Cache_Controller.Exclusive_Data          441      0.00%      0.00%
system.ruby.GPUL2Cache_Controller.All_acks            1      0.00%      0.00%
system.ruby.GPUL2Cache_Controller.All_acks_no_sharers          441      0.00%      0.00%
system.ruby.GPUL2Cache_Controller.I.Get           434      0.00%      0.00%
system.ruby.GPUL2Cache_Controller.I.Store            8      0.00%      0.00%
system.ruby.GPUL2Cache_Controller.I.Other_GETX         1244      0.00%      0.00%
system.ruby.GPUL2Cache_Controller.I.Other_GETS         1084      0.00%      0.00%
system.ruby.GPUL2Cache_Controller.S.Get             3      0.00%      0.00%
system.ruby.GPUL2Cache_Controller.O.Other_GETX            3      0.00%      0.00%
system.ruby.GPUL2Cache_Controller.O.Other_GETS            1      0.00%      0.00%
system.ruby.GPUL2Cache_Controller.M.Get            96      0.00%      0.00%
system.ruby.GPUL2Cache_Controller.M.Store          411      0.00%      0.00%
system.ruby.GPUL2Cache_Controller.M.Other_GETS           10      0.00%      0.00%
system.ruby.GPUL2Cache_Controller.MM.Get           94      0.00%      0.00%
system.ruby.GPUL2Cache_Controller.MM.Store          839      0.00%      0.00%
system.ruby.GPUL2Cache_Controller.MM.Other_GETX          137      0.00%      0.00%
system.ruby.GPUL2Cache_Controller.MM.Other_GETS          147      0.00%      0.00%
system.ruby.GPUL2Cache_Controller.IM.Store            8      0.00%      0.00%
system.ruby.GPUL2Cache_Controller.IM.Ack           14      0.00%      0.00%
system.ruby.GPUL2Cache_Controller.IM.Exclusive_Data            8      0.00%      0.00%
system.ruby.GPUL2Cache_Controller.IS.Get           99      0.00%      0.00%
system.ruby.GPUL2Cache_Controller.IS.Ack          867      0.00%      0.00%
system.ruby.GPUL2Cache_Controller.IS.Shared_Data            1      0.00%      0.00%
system.ruby.GPUL2Cache_Controller.IS.Exclusive_Data          433      0.00%      0.00%
system.ruby.GPUL2Cache_Controller.SS.All_acks            1      0.00%      0.00%
system.ruby.GPUL2Cache_Controller.M_W.All_acks_no_sharers          433      0.00%      0.00%
system.ruby.GPUL2Cache_Controller.MM_W.All_acks_no_sharers            8      0.00%      0.00%

---------- End Simulation Statistics   ----------
