
---------- Begin Simulation Statistics ----------
sim_seconds                                  0.013305                       # Number of seconds simulated
sim_ticks                                 13304615000                       # Number of ticks simulated
final_tick                                13304615000                       # Number of ticks from beginning of simulation (restored from checkpoints and never reset)
sim_freq                                 1000000000000                       # Frequency of simulated ticks
host_inst_rate                                 210828                       # Simulator instruction rate (inst/s)
host_op_rate                                   402771                       # Simulator op (including micro ops) rate (op/s)
host_tick_rate                              565481304                       # Simulator tick rate (ticks/s)
host_mem_usage                                2430412                       # Number of bytes of host memory used
host_seconds                                    23.53                       # Real time elapsed on the host
sim_insts                                     4960342                       # Number of instructions simulated
sim_ops                                       9476372                       # Number of ops (including micro ops) simulated
system.voltage_domain.voltage                       1                       # Voltage in Volts
system.clk_domain.clock                          1000                       # Clock period in ticks
system.mem_ctrls.bytes_read::gpu.shader_cores0.data        35072                       # Number of bytes read from this memory
system.mem_ctrls.bytes_read::gpu.shader_cores0.inst          288                       # Number of bytes read from this memory
system.mem_ctrls.bytes_read::gpu.shader_cores1.data        35456                       # Number of bytes read from this memory
system.mem_ctrls.bytes_read::gpu.shader_cores1.inst          312                       # Number of bytes read from this memory
system.mem_ctrls.bytes_read::gpu.shader_cores2.data        35072                       # Number of bytes read from this memory
system.mem_ctrls.bytes_read::gpu.shader_cores2.inst          288                       # Number of bytes read from this memory
system.mem_ctrls.bytes_read::gpu.shader_cores3.data        34816                       # Number of bytes read from this memory
system.mem_ctrls.bytes_read::gpu.shader_cores3.inst          288                       # Number of bytes read from this memory
system.mem_ctrls.bytes_read::gpu.ce             73052                       # Number of bytes read from this memory
system.mem_ctrls.bytes_read::cpu.inst        53320888                       # Number of bytes read from this memory
system.mem_ctrls.bytes_read::cpu.data         7972111                       # Number of bytes read from this memory
system.mem_ctrls.bytes_read::total           61507643                       # Number of bytes read from this memory
system.mem_ctrls.bytes_inst_read::gpu.shader_cores0.inst          288                       # Number of instructions bytes read from this memory
system.mem_ctrls.bytes_inst_read::gpu.shader_cores1.inst          312                       # Number of instructions bytes read from this memory
system.mem_ctrls.bytes_inst_read::gpu.shader_cores2.inst          288                       # Number of instructions bytes read from this memory
system.mem_ctrls.bytes_inst_read::gpu.shader_cores3.inst          288                       # Number of instructions bytes read from this memory
system.mem_ctrls.bytes_inst_read::cpu.inst     53320888                       # Number of instructions bytes read from this memory
system.mem_ctrls.bytes_inst_read::total      53322064                       # Number of instructions bytes read from this memory
system.mem_ctrls.bytes_written::gpu.shader_cores0.data        12544                       # Number of bytes written to this memory
system.mem_ctrls.bytes_written::gpu.shader_cores1.data        12672                       # Number of bytes written to this memory
system.mem_ctrls.bytes_written::gpu.shader_cores2.data        12544                       # Number of bytes written to this memory
system.mem_ctrls.bytes_written::gpu.shader_cores3.data        12544                       # Number of bytes written to this memory
system.mem_ctrls.bytes_written::gpu.ce          73052                       # Number of bytes written to this memory
system.mem_ctrls.bytes_written::cpu.data      4969927                       # Number of bytes written to this memory
system.mem_ctrls.bytes_written::total         5093283                       # Number of bytes written to this memory
system.mem_ctrls.num_reads::gpu.shader_cores0.data          428                       # Number of read requests responded to by this memory
system.mem_ctrls.num_reads::gpu.shader_cores0.inst           12                       # Number of read requests responded to by this memory
system.mem_ctrls.num_reads::gpu.shader_cores1.data          421                       # Number of read requests responded to by this memory
system.mem_ctrls.num_reads::gpu.shader_cores1.inst           13                       # Number of read requests responded to by this memory
system.mem_ctrls.num_reads::gpu.shader_cores2.data          428                       # Number of read requests responded to by this memory
system.mem_ctrls.num_reads::gpu.shader_cores2.inst           12                       # Number of read requests responded to by this memory
system.mem_ctrls.num_reads::gpu.shader_cores3.data          416                       # Number of read requests responded to by this memory
system.mem_ctrls.num_reads::gpu.shader_cores3.inst           12                       # Number of read requests responded to by this memory
system.mem_ctrls.num_reads::gpu.ce                577                       # Number of read requests responded to by this memory
system.mem_ctrls.num_reads::cpu.inst          6665111                       # Number of read requests responded to by this memory
system.mem_ctrls.num_reads::cpu.data          1297860                       # Number of read requests responded to by this memory
system.mem_ctrls.num_reads::total             7965290                       # Number of read requests responded to by this memory
system.mem_ctrls.num_writes::gpu.shader_cores0.data          308                       # Number of write requests responded to by this memory
system.mem_ctrls.num_writes::gpu.shader_cores1.data          322                       # Number of write requests responded to by this memory
system.mem_ctrls.num_writes::gpu.shader_cores2.data          308                       # Number of write requests responded to by this memory
system.mem_ctrls.num_writes::gpu.shader_cores3.data          320                       # Number of write requests responded to by this memory
system.mem_ctrls.num_writes::gpu.ce               576                       # Number of write requests responded to by this memory
system.mem_ctrls.num_writes::cpu.data          788149                       # Number of write requests responded to by this memory
system.mem_ctrls.num_writes::total             789983                       # Number of write requests responded to by this memory
system.mem_ctrls.bw_read::gpu.shader_cores0.data      2636078                       # Total read bandwidth from this memory (bytes/s)
system.mem_ctrls.bw_read::gpu.shader_cores0.inst        21647                       # Total read bandwidth from this memory (bytes/s)
system.mem_ctrls.bw_read::gpu.shader_cores1.data      2664940                       # Total read bandwidth from this memory (bytes/s)
system.mem_ctrls.bw_read::gpu.shader_cores1.inst        23451                       # Total read bandwidth from this memory (bytes/s)
system.mem_ctrls.bw_read::gpu.shader_cores2.data      2636078                       # Total read bandwidth from this memory (bytes/s)
system.mem_ctrls.bw_read::gpu.shader_cores2.inst        21647                       # Total read bandwidth from this memory (bytes/s)
system.mem_ctrls.bw_read::gpu.shader_cores3.data      2616836                       # Total read bandwidth from this memory (bytes/s)
system.mem_ctrls.bw_read::gpu.shader_cores3.inst        21647                       # Total read bandwidth from this memory (bytes/s)
system.mem_ctrls.bw_read::gpu.ce              5490726                       # Total read bandwidth from this memory (bytes/s)
system.mem_ctrls.bw_read::cpu.inst         4007698682                       # Total read bandwidth from this memory (bytes/s)
system.mem_ctrls.bw_read::cpu.data          599198925                       # Total read bandwidth from this memory (bytes/s)
system.mem_ctrls.bw_read::total            4623030655                       # Total read bandwidth from this memory (bytes/s)
system.mem_ctrls.bw_inst_read::gpu.shader_cores0.inst        21647                       # Instruction read bandwidth from this memory (bytes/s)
system.mem_ctrls.bw_inst_read::gpu.shader_cores1.inst        23451                       # Instruction read bandwidth from this memory (bytes/s)
system.mem_ctrls.bw_inst_read::gpu.shader_cores2.inst        21647                       # Instruction read bandwidth from this memory (bytes/s)
system.mem_ctrls.bw_inst_read::gpu.shader_cores3.inst        21647                       # Instruction read bandwidth from this memory (bytes/s)
system.mem_ctrls.bw_inst_read::cpu.inst    4007698682                       # Instruction read bandwidth from this memory (bytes/s)
system.mem_ctrls.bw_inst_read::total       4007787072                       # Instruction read bandwidth from this memory (bytes/s)
system.mem_ctrls.bw_write::gpu.shader_cores0.data       942831                       # Write bandwidth from this memory (bytes/s)
system.mem_ctrls.bw_write::gpu.shader_cores1.data       952451                       # Write bandwidth from this memory (bytes/s)
system.mem_ctrls.bw_write::gpu.shader_cores2.data       942831                       # Write bandwidth from this memory (bytes/s)
system.mem_ctrls.bw_write::gpu.shader_cores3.data       942831                       # Write bandwidth from this memory (bytes/s)
system.mem_ctrls.bw_write::gpu.ce             5490726                       # Write bandwidth from this memory (bytes/s)
system.mem_ctrls.bw_write::cpu.data         373549103                       # Write bandwidth from this memory (bytes/s)
system.mem_ctrls.bw_write::total            382820773                       # Write bandwidth from this memory (bytes/s)
system.mem_ctrls.bw_total::gpu.shader_cores0.data      3578909                       # Total bandwidth to/from this memory (bytes/s)
system.mem_ctrls.bw_total::gpu.shader_cores0.inst        21647                       # Total bandwidth to/from this memory (bytes/s)
system.mem_ctrls.bw_total::gpu.shader_cores1.data      3617391                       # Total bandwidth to/from this memory (bytes/s)
system.mem_ctrls.bw_total::gpu.shader_cores1.inst        23451                       # Total bandwidth to/from this memory (bytes/s)
system.mem_ctrls.bw_total::gpu.shader_cores2.data      3578909                       # Total bandwidth to/from this memory (bytes/s)
system.mem_ctrls.bw_total::gpu.shader_cores2.inst        21647                       # Total bandwidth to/from this memory (bytes/s)
system.mem_ctrls.bw_total::gpu.shader_cores3.data      3559667                       # Total bandwidth to/from this memory (bytes/s)
system.mem_ctrls.bw_total::gpu.shader_cores3.inst        21647                       # Total bandwidth to/from this memory (bytes/s)
system.mem_ctrls.bw_total::gpu.ce            10981453                       # Total bandwidth to/from this memory (bytes/s)
system.mem_ctrls.bw_total::cpu.inst        4007698682                       # Total bandwidth to/from this memory (bytes/s)
system.mem_ctrls.bw_total::cpu.data         972748028                       # Total bandwidth to/from this memory (bytes/s)
system.mem_ctrls.bw_total::total           5005851428                       # Total bandwidth to/from this memory (bytes/s)
system.ruby_clk_domain.clock                      500                       # Clock period in ticks
system.ruby.delayHist::bucket_size                 16                       # delay histogram for all message
system.ruby.delayHist::max_bucket                 159                       # delay histogram for all message
system.ruby.delayHist::samples                   1882                       # delay histogram for all message
system.ruby.delayHist::mean                  1.858661                       # delay histogram for all message
system.ruby.delayHist::stdev                 8.372965                       # delay histogram for all message
system.ruby.delayHist                    |        1816     96.49%     96.49% |          43      2.28%     98.78% |           8      0.43%     99.20% |           4      0.21%     99.42% |           3      0.16%     99.57% |           4      0.21%     99.79% |           4      0.21%    100.00% |           0      0.00%    100.00% |           0      0.00%    100.00% |           0      0.00%    100.00% # delay histogram for all message
system.ruby.delayHist::total                     1882                       # delay histogram for all message
system.ruby.outstanding_req_hist::bucket_size            8                      
system.ruby.outstanding_req_hist::max_bucket           79                      
system.ruby.outstanding_req_hist::samples      8755274                      
system.ruby.outstanding_req_hist::mean       1.014188                      
system.ruby.outstanding_req_hist::gmean      1.001428                      
system.ruby.outstanding_req_hist::stdev      0.797017                      
system.ruby.outstanding_req_hist         |     8751903     99.96%     99.96% |         559      0.01%     99.97% |         367      0.00%     99.97% |         352      0.00%     99.98% |         704      0.01%     99.98% |         343      0.00%     99.99% |         284      0.00%     99.99% |         204      0.00%     99.99% |         558      0.01%    100.00% |           0      0.00%    100.00%
system.ruby.outstanding_req_hist::total       8755274                      
system.ruby.latency_hist::bucket_size             256                      
system.ruby.latency_hist::max_bucket             2559                      
system.ruby.latency_hist::samples             8755273                      
system.ruby.latency_hist::mean               2.218789                      
system.ruby.latency_hist::gmean              2.007768                      
system.ruby.latency_hist::stdev             12.367545                      
system.ruby.latency_hist                 |     8753200     99.98%     99.98% |         779      0.01%     99.99% |         577      0.01%     99.99% |         436      0.00%    100.00% |         101      0.00%    100.00% |          82      0.00%    100.00% |          70      0.00%    100.00% |          20      0.00%    100.00% |           8      0.00%    100.00% |           0      0.00%    100.00%
system.ruby.latency_hist::total               8755273                      
system.ruby.hit_latency_hist::bucket_size          128                      
system.ruby.hit_latency_hist::max_bucket         1279                      
system.ruby.hit_latency_hist::samples         8753176                      
system.ruby.hit_latency_hist::mean           2.124228                      
system.ruby.hit_latency_hist::gmean          2.005455                      
system.ruby.hit_latency_hist::stdev          8.040723                      
system.ruby.hit_latency_hist             |     8750865     99.97%     99.97% |         843      0.01%     99.98% |         406      0.00%     99.99% |         270      0.00%     99.99% |         339      0.00%     99.99% |         136      0.00%    100.00% |         160      0.00%    100.00% |         143      0.00%    100.00% |          14      0.00%    100.00% |           0      0.00%    100.00%
system.ruby.hit_latency_hist::total           8753176                      
system.ruby.miss_latency_hist::bucket_size          256                      
system.ruby.miss_latency_hist::max_bucket         2559                      
system.ruby.miss_latency_hist::samples           2097                      
system.ruby.miss_latency_hist::mean        396.933238                      
system.ruby.miss_latency_hist::gmean       246.852572                      
system.ruby.miss_latency_hist::stdev       461.526493                      
system.ruby.miss_latency_hist            |        1492     71.15%     71.15% |         103      4.91%     76.06% |         102      4.86%     80.93% |         133      6.34%     87.27% |          87      4.15%     91.42% |          82      3.91%     95.33% |          70      3.34%     98.66% |          20      0.95%     99.62% |           8      0.38%    100.00% |           0      0.00%    100.00%
system.ruby.miss_latency_hist::total             2097                      
system.ruby.L1Cache.incomplete_times                1                      
system.ruby.GPUL2Cache.incomplete_times           190                      
system.ruby.Directory.incomplete_times            433                      
system.ruby.l1_cntrl_ce.sequencer.icache.demand_hits            0                       # Number of cache demand hits
system.ruby.l1_cntrl_ce.sequencer.icache.demand_misses            0                       # Number of cache demand misses
system.ruby.l1_cntrl_ce.sequencer.icache.demand_accesses            0                       # Number of cache demand accesses
system.ruby.l1_cntrl0.L1Dcache.demand_hits      2084521                       # Number of cache demand hits
system.ruby.l1_cntrl0.L1Dcache.demand_misses         1488                       # Number of cache demand misses
system.ruby.l1_cntrl0.L1Dcache.demand_accesses      2086009                       # Number of cache demand accesses
system.ruby.l1_cntrl0.L1Icache.demand_hits      6659581                       # Number of cache demand hits
system.ruby.l1_cntrl0.L1Icache.demand_misses         5530                       # Number of cache demand misses
system.ruby.l1_cntrl0.L1Icache.demand_accesses      6665111                       # Number of cache demand accesses
system.ruby.l1_cntrl0.L2cache.demand_hits         5545                       # Number of cache demand hits
system.ruby.l1_cntrl0.L2cache.demand_misses         1473                       # Number of cache demand misses
system.ruby.l1_cntrl0.L2cache.demand_accesses         7018                       # Number of cache demand accesses
system.ruby.network.ext_links0.int_node.percent_links_utilized     0.016238                      
system.ruby.network.ext_links0.int_node.msg_count.Request_Control::2         1915                      
system.ruby.network.ext_links0.int_node.msg_count.Response_Data::1          577                      
system.ruby.network.ext_links0.int_node.msg_count.Response_Data::4         2522                      
system.ruby.network.ext_links0.int_node.msg_count.Response_Control::4         6229                      
system.ruby.network.ext_links0.int_node.msg_count.Writeback_Control::0         1153                      
system.ruby.network.ext_links0.int_node.msg_count.Writeback_Control::1          576                      
system.ruby.network.ext_links0.int_node.msg_count.Broadcast_Control::3         4663                      
system.ruby.network.ext_links0.int_node.msg_count.Unblock_Control::5         1915                      
system.ruby.network.ext_links0.int_node.msg_bytes.Request_Control::2        15320                      
system.ruby.network.ext_links0.int_node.msg_bytes.Response_Data::1        78472                      
system.ruby.network.ext_links0.int_node.msg_bytes.Response_Data::4       342992                      
system.ruby.network.ext_links0.int_node.msg_bytes.Response_Control::4        49832                      
system.ruby.network.ext_links0.int_node.msg_bytes.Writeback_Control::0         9224                      
system.ruby.network.ext_links0.int_node.msg_bytes.Writeback_Control::1         4608                      
system.ruby.network.ext_links0.int_node.msg_bytes.Broadcast_Control::3        37304                      
system.ruby.network.ext_links0.int_node.msg_bytes.Unblock_Control::5        15320                      
system.ruby.network.ext_links1.int_node.percent_links_utilized     0.018431                      
system.ruby.network.ext_links1.int_node.msg_count.Request_Control::2         1473                      
system.ruby.network.ext_links1.int_node.msg_count.Response_Data::4         1793                      
system.ruby.network.ext_links1.int_node.msg_count.Response_Control::4         4213                      
system.ruby.network.ext_links1.int_node.msg_count.Broadcast_Control::3         1595                      
system.ruby.network.ext_links1.int_node.msg_count.Unblock_Control::5         1473                      
system.ruby.network.ext_links1.int_node.msg_bytes.Request_Control::2        11784                      
system.ruby.network.ext_links1.int_node.msg_bytes.Response_Data::4       243848                      
system.ruby.network.ext_links1.int_node.msg_bytes.Response_Control::4        33704                      
system.ruby.network.ext_links1.int_node.msg_bytes.Broadcast_Control::3        12760                      
system.ruby.network.ext_links1.int_node.msg_bytes.Unblock_Control::5        11784                      
system.ruby.l1_cntrl_sp00.cache.demand_hits          289                       # Number of cache demand hits
system.ruby.l1_cntrl_sp00.cache.demand_misses          459                       # Number of cache demand misses
system.ruby.l1_cntrl_sp00.cache.demand_accesses          748                       # Number of cache demand accesses
system.ruby.l1_cntrl_sp00.cache.num_data_array_reads          289                       # number of data array reads
system.ruby.l1_cntrl_sp00.cache.num_data_array_writes          151                       # number of data array writes
system.ruby.l1_cntrl_sp00.cache.num_tag_array_reads          748                       # number of tag array reads
system.ruby.l1_cntrl_sp00.cache.num_tag_array_writes          281                       # number of tag array writes
system.ruby.network.ext_links2.int_node.percent_links_utilized     0.006265                      
system.ruby.network.ext_links2.int_node.msg_count.Control::7          624                      
system.ruby.network.ext_links2.int_node.msg_count.Data::7         1258                      
system.ruby.network.ext_links2.int_node.msg_count.Response_Data::6          624                      
system.ruby.network.ext_links2.int_node.msg_count.Response_Control::4         3068                      
system.ruby.network.ext_links2.int_node.msg_count.Writeback_Control::6         1258                      
system.ruby.network.ext_links2.int_node.msg_count.Broadcast_Control::3         3068                      
system.ruby.network.ext_links2.int_node.msg_bytes.Control::7         4992                      
system.ruby.network.ext_links2.int_node.msg_bytes.Data::7       171088                      
system.ruby.network.ext_links2.int_node.msg_bytes.Response_Data::6        84864                      
system.ruby.network.ext_links2.int_node.msg_bytes.Response_Control::4        24544                      
system.ruby.network.ext_links2.int_node.msg_bytes.Writeback_Control::6        10064                      
system.ruby.network.ext_links2.int_node.msg_bytes.Broadcast_Control::3        24544                      
system.ruby.l1_cntrl_sp01.cache.demand_hits          271                       # Number of cache demand hits
system.ruby.l1_cntrl_sp01.cache.demand_misses          485                       # Number of cache demand misses
system.ruby.l1_cntrl_sp01.cache.demand_accesses          756                       # Number of cache demand accesses
system.ruby.l1_cntrl_sp01.cache.num_data_array_reads          271                       # number of data array reads
system.ruby.l1_cntrl_sp01.cache.num_data_array_writes          163                       # number of data array writes
system.ruby.l1_cntrl_sp01.cache.num_tag_array_reads          756                       # number of tag array reads
system.ruby.l1_cntrl_sp01.cache.num_tag_array_writes          308                       # number of tag array writes
system.ruby.l1_cntrl_sp02.cache.demand_hits          288                       # Number of cache demand hits
system.ruby.l1_cntrl_sp02.cache.demand_misses          460                       # Number of cache demand misses
system.ruby.l1_cntrl_sp02.cache.demand_accesses          748                       # Number of cache demand accesses
system.ruby.l1_cntrl_sp02.cache.num_data_array_reads          288                       # number of data array reads
system.ruby.l1_cntrl_sp02.cache.num_data_array_writes          152                       # number of data array writes
system.ruby.l1_cntrl_sp02.cache.num_tag_array_reads          748                       # number of tag array reads
system.ruby.l1_cntrl_sp02.cache.num_tag_array_writes          283                       # number of tag array writes
system.ruby.l1_cntrl_sp03.cache.demand_hits          270                       # Number of cache demand hits
system.ruby.l1_cntrl_sp03.cache.demand_misses          478                       # Number of cache demand misses
system.ruby.l1_cntrl_sp03.cache.demand_accesses          748                       # Number of cache demand accesses
system.ruby.l1_cntrl_sp03.cache.num_data_array_reads          270                       # number of data array reads
system.ruby.l1_cntrl_sp03.cache.num_data_array_writes          158                       # number of data array writes
system.ruby.l1_cntrl_sp03.cache.num_tag_array_reads          748                       # number of tag array reads
system.ruby.l1_cntrl_sp03.cache.num_tag_array_writes          299                       # number of tag array writes
system.ruby.l2_cntrl0.L2cache.demand_hits         1440                       # Number of cache demand hits
system.ruby.l2_cntrl0.L2cache.demand_misses          442                       # Number of cache demand misses
system.ruby.l2_cntrl0.L2cache.demand_accesses         1882                       # Number of cache demand accesses
system.ruby.l2_cntrl0.L2cache.num_data_array_reads          488                       # number of data array reads
system.ruby.l2_cntrl0.L2cache.num_data_array_writes         1692                       # number of data array writes
system.ruby.l2_cntrl0.L2cache.num_tag_array_reads         4505                       # number of tag array reads
system.ruby.l2_cntrl0.L2cache.num_tag_array_writes         1158                       # number of tag array writes
system.ruby.network.ext_links6.int_node.percent_links_utilized     0.018436                      
system.ruby.network.ext_links6.int_node.msg_count.Control::7          624                      
system.ruby.network.ext_links6.int_node.msg_count.Data::7         1258                      
system.ruby.network.ext_links6.int_node.msg_count.Request_Control::2          442                      
system.ruby.network.ext_links6.int_node.msg_count.Response_Data::4          740                      
system.ruby.network.ext_links6.int_node.msg_count.Response_Data::6          624                      
system.ruby.network.ext_links6.int_node.msg_count.Response_Control::4         5835                      
system.ruby.network.ext_links6.int_node.msg_count.Writeback_Control::6         1258                      
system.ruby.network.ext_links6.int_node.msg_count.Broadcast_Control::3         5694                      
system.ruby.network.ext_links6.int_node.msg_count.Unblock_Control::5          442                      
system.ruby.network.ext_links6.int_node.msg_bytes.Control::7         4992                      
system.ruby.network.ext_links6.int_node.msg_bytes.Data::7       171088                      
system.ruby.network.ext_links6.int_node.msg_bytes.Request_Control::2         3536                      
system.ruby.network.ext_links6.int_node.msg_bytes.Response_Data::4       100640                      
system.ruby.network.ext_links6.int_node.msg_bytes.Response_Data::6        84864                      
system.ruby.network.ext_links6.int_node.msg_bytes.Response_Control::4        46680                      
system.ruby.network.ext_links6.int_node.msg_bytes.Writeback_Control::6        10064                      
system.ruby.network.ext_links6.int_node.msg_bytes.Broadcast_Control::3        45552                      
system.ruby.network.ext_links6.int_node.msg_bytes.Unblock_Control::5         3536                      
system.ruby.l1_pw_cntrl.L1Dcache.demand_hits            0                       # Number of cache demand hits
system.ruby.l1_pw_cntrl.L1Dcache.demand_misses            0                       # Number of cache demand misses
system.ruby.l1_pw_cntrl.L1Dcache.demand_accesses            0                       # Number of cache demand accesses
system.ruby.l1_pw_cntrl.L1Icache.demand_hits            0                       # Number of cache demand hits
system.ruby.l1_pw_cntrl.L1Icache.demand_misses            0                       # Number of cache demand misses
system.ruby.l1_pw_cntrl.L1Icache.demand_accesses            0                       # Number of cache demand accesses
system.ruby.l1_pw_cntrl.L2cache.demand_hits            0                       # Number of cache demand hits
system.ruby.l1_pw_cntrl.L2cache.demand_misses            0                       # Number of cache demand misses
system.ruby.l1_pw_cntrl.L2cache.demand_accesses            0                       # Number of cache demand accesses
system.ruby.dir_cntrl0.memBuffer.clk_domain.clock         2500                       # Clock period in ticks
system.ruby.dir_cntrl0.memBuffer.memReq          2612                       # Total number of memory requests
system.ruby.dir_cntrl0.memBuffer.memRead         2036                       # Number of memory reads
system.ruby.dir_cntrl0.memBuffer.memWrite          576                       # Number of memory writes
system.ruby.dir_cntrl0.memBuffer.memRefresh        12149                       # Number of memory refreshes
system.ruby.dir_cntrl0.memBuffer.memWaitCycles        44496                       # Delay stalled at the head of the bank queue
system.ruby.dir_cntrl0.memBuffer.memInputQ        12817                       # Delay in the input queue
system.ruby.dir_cntrl0.memBuffer.memBankQ        40197                       # Delay behind the head of the bank queue
system.ruby.dir_cntrl0.memBuffer.totalStalls        97510                       # Total number of stall cycles
system.ruby.dir_cntrl0.memBuffer.stallsPerReq    37.331547                       # Expected number of stall cycles per request
system.ruby.dir_cntrl0.memBuffer.memBankBusy         7375                       # memory stalls due to busy bank
system.ruby.dir_cntrl0.memBuffer.memBusBusy        12653                       # memory stalls due to busy bus
system.ruby.dir_cntrl0.memBuffer.memReadWriteBusy          459                       # memory stalls due to read write turnaround
system.ruby.dir_cntrl0.memBuffer.memDataBusBusy         2045                       # memory stalls due to read read turnaround
system.ruby.dir_cntrl0.memBuffer.memArbWait         9777                       # memory stalls due to arbitration
system.ruby.dir_cntrl0.memBuffer.memNotOld        12187                       # memory stalls due to anti starvation
system.ruby.dir_cntrl0.memBuffer.memBankCount |          77      2.95%      2.95% |          82      3.14%      6.09% |          82      3.14%      9.23% |          85      3.25%     12.48% |          79      3.02%     15.51% |          86      3.29%     18.80% |          79      3.02%     21.82% |          82      3.14%     24.96% |          82      3.14%     28.10% |          81      3.10%     31.20% |          83      3.18%     34.38% |          76      2.91%     37.29% |          73      2.79%     40.08% |          74      2.83%     42.92% |          79      3.02%     45.94% |          78      2.99%     48.93% |          84      3.22%     52.14% |          86      3.29%     55.44% |          81      3.10%     58.54% |          86      3.29%     61.83% |          77      2.95%     64.78% |          78      2.99%     67.76% |          85      3.25%     71.02% |          88      3.37%     74.39% |          94      3.60%     77.99% |          86      3.29%     81.28% |          83      3.18%     84.46% |          81      3.10%     87.56% |          79      3.02%     90.58% |          80      3.06%     93.64% |          85      3.25%     96.90% |          81      3.10%    100.00% # Number of accesses per bank
system.ruby.dir_cntrl0.memBuffer.memBankCount::total         2612                       # Number of accesses per bank
system.ruby.dir_cntrl0.probeFilter.demand_hits            0                       # Number of cache demand hits
system.ruby.dir_cntrl0.probeFilter.demand_misses            0                       # Number of cache demand misses
system.ruby.dir_cntrl0.probeFilter.demand_accesses            0                       # Number of cache demand accesses
system.ruby.dir_cntrl0.probeFilter.num_data_array_reads         3068                       # number of data array reads
system.ruby.dir_cntrl0.probeFilter.num_data_array_writes         4963                       # number of data array writes
system.ruby.network.msg_count.Control            1248                      
system.ruby.network.msg_count.Data               2516                      
system.ruby.network.msg_count.Request_Control         3830                      
system.ruby.network.msg_count.Response_Data         6880                      
system.ruby.network.msg_count.Response_Control        19345                      
system.ruby.network.msg_count.Writeback_Control         4245                      
system.ruby.network.msg_count.Broadcast_Control        15020                      
system.ruby.network.msg_count.Unblock_Control         3830                      
system.ruby.network.msg_byte.Control             9984                      
system.ruby.network.msg_byte.Data              342176                      
system.ruby.network.msg_byte.Request_Control        30640                      
system.ruby.network.msg_byte.Response_Data       935680                      
system.ruby.network.msg_byte.Response_Control       154760                      
system.ruby.network.msg_byte.Writeback_Control        33960                      
system.ruby.network.msg_byte.Broadcast_Control       120160                      
system.ruby.network.msg_byte.Unblock_Control        30640                      
system.cpu_voltage_domain.voltage                   1                       # Voltage in Volts
system.gpu.clk_domain.voltage_domain.voltage            1                       # Voltage in Volts
system.gpu.clk_domain.clock                      1429                       # Clock period in ticks
system.gpu.dram_wrapper.clk_domain.clock          541                       # Clock period in ticks
system.gpu.icnt_wrapper.clk_domain.clock         2858                       # Clock period in ticks
system.gpu.shader_mmu.numPagefaults                 0                       # Number of Pagefaults
system.gpu.shader_mmu.numPagewalks                169                       # Number of Pagewalks
system.gpu.shader_mmu.totalRequests               169                       # Total number of requests
system.gpu.shader_mmu.retryFailures                 0                       # Times the retry walk after a pagefault failed
system.gpu.shader_mmu.l2hits                        0                       # Hits in the shared L2
system.gpu.shader_mmu.prefetchHits                  0                       # Number of prefetch hits
system.gpu.shader_mmu.numPrefetches                 0                       # Number of prefetchs
system.gpu.shader_mmu.prefetchFaults                0                       # Number of faults caused by prefetches
system.gpu.shader_mmu.pagefaultLatency::samples            0                       # Latency to complete the pagefault
system.gpu.shader_mmu.pagefaultLatency::mean          nan                       # Latency to complete the pagefault
system.gpu.shader_mmu.pagefaultLatency::gmean          nan                       # Latency to complete the pagefault
system.gpu.shader_mmu.pagefaultLatency::stdev          nan                       # Latency to complete the pagefault
system.gpu.shader_mmu.pagefaultLatency::0            0                       # Latency to complete the pagefault
system.gpu.shader_mmu.pagefaultLatency::1            0                       # Latency to complete the pagefault
system.gpu.shader_mmu.pagefaultLatency::2            0                       # Latency to complete the pagefault
system.gpu.shader_mmu.pagefaultLatency::3            0                       # Latency to complete the pagefault
system.gpu.shader_mmu.pagefaultLatency::4            0                       # Latency to complete the pagefault
system.gpu.shader_mmu.pagefaultLatency::5            0                       # Latency to complete the pagefault
system.gpu.shader_mmu.pagefaultLatency::6            0                       # Latency to complete the pagefault
system.gpu.shader_mmu.pagefaultLatency::7            0                       # Latency to complete the pagefault
system.gpu.shader_mmu.pagefaultLatency::8            0                       # Latency to complete the pagefault
system.gpu.shader_mmu.pagefaultLatency::9            0                       # Latency to complete the pagefault
system.gpu.shader_mmu.pagefaultLatency::10            0                       # Latency to complete the pagefault
system.gpu.shader_mmu.pagefaultLatency::11            0                       # Latency to complete the pagefault
system.gpu.shader_mmu.pagefaultLatency::12            0                       # Latency to complete the pagefault
system.gpu.shader_mmu.pagefaultLatency::13            0                       # Latency to complete the pagefault
system.gpu.shader_mmu.pagefaultLatency::14            0                       # Latency to complete the pagefault
system.gpu.shader_mmu.pagefaultLatency::15            0                       # Latency to complete the pagefault
system.gpu.shader_mmu.pagefaultLatency::16            0                       # Latency to complete the pagefault
system.gpu.shader_mmu.pagefaultLatency::17            0                       # Latency to complete the pagefault
system.gpu.shader_mmu.pagefaultLatency::18            0                       # Latency to complete the pagefault
system.gpu.shader_mmu.pagefaultLatency::19            0                       # Latency to complete the pagefault
system.gpu.shader_mmu.pagefaultLatency::20            0                       # Latency to complete the pagefault
system.gpu.shader_mmu.pagefaultLatency::21            0                       # Latency to complete the pagefault
system.gpu.shader_mmu.pagefaultLatency::22            0                       # Latency to complete the pagefault
system.gpu.shader_mmu.pagefaultLatency::23            0                       # Latency to complete the pagefault
system.gpu.shader_mmu.pagefaultLatency::24            0                       # Latency to complete the pagefault
system.gpu.shader_mmu.pagefaultLatency::25            0                       # Latency to complete the pagefault
system.gpu.shader_mmu.pagefaultLatency::26            0                       # Latency to complete the pagefault
system.gpu.shader_mmu.pagefaultLatency::27            0                       # Latency to complete the pagefault
system.gpu.shader_mmu.pagefaultLatency::28            0                       # Latency to complete the pagefault
system.gpu.shader_mmu.pagefaultLatency::29            0                       # Latency to complete the pagefault
system.gpu.shader_mmu.pagefaultLatency::30            0                       # Latency to complete the pagefault
system.gpu.shader_mmu.pagefaultLatency::31            0                       # Latency to complete the pagefault
system.gpu.shader_mmu.pagefaultLatency::total            0                       # Latency to complete the pagefault
system.gpu.shader_mmu.concurrentWalks::samples          169                       # Number of outstanding walks
system.gpu.shader_mmu.concurrentWalks::mean            0                       # Number of outstanding walks
system.gpu.shader_mmu.concurrentWalks::gmean            0                       # Number of outstanding walks
system.gpu.shader_mmu.concurrentWalks::stdev            0                       # Number of outstanding walks
system.gpu.shader_mmu.concurrentWalks::0          169    100.00%    100.00% # Number of outstanding walks
system.gpu.shader_mmu.concurrentWalks::1            0      0.00%    100.00% # Number of outstanding walks
system.gpu.shader_mmu.concurrentWalks::2            0      0.00%    100.00% # Number of outstanding walks
system.gpu.shader_mmu.concurrentWalks::3            0      0.00%    100.00% # Number of outstanding walks
system.gpu.shader_mmu.concurrentWalks::4            0      0.00%    100.00% # Number of outstanding walks
system.gpu.shader_mmu.concurrentWalks::5            0      0.00%    100.00% # Number of outstanding walks
system.gpu.shader_mmu.concurrentWalks::6            0      0.00%    100.00% # Number of outstanding walks
system.gpu.shader_mmu.concurrentWalks::7            0      0.00%    100.00% # Number of outstanding walks
system.gpu.shader_mmu.concurrentWalks::8            0      0.00%    100.00% # Number of outstanding walks
system.gpu.shader_mmu.concurrentWalks::9            0      0.00%    100.00% # Number of outstanding walks
system.gpu.shader_mmu.concurrentWalks::10            0      0.00%    100.00% # Number of outstanding walks
system.gpu.shader_mmu.concurrentWalks::11            0      0.00%    100.00% # Number of outstanding walks
system.gpu.shader_mmu.concurrentWalks::12            0      0.00%    100.00% # Number of outstanding walks
system.gpu.shader_mmu.concurrentWalks::13            0      0.00%    100.00% # Number of outstanding walks
system.gpu.shader_mmu.concurrentWalks::14            0      0.00%    100.00% # Number of outstanding walks
system.gpu.shader_mmu.concurrentWalks::15            0      0.00%    100.00% # Number of outstanding walks
system.gpu.shader_mmu.concurrentWalks::total          169                       # Number of outstanding walks
system.gpu.shader_mmu.pagewalkLatency::samples          169                       # Latency to complete the pagewalk
system.gpu.shader_mmu.pagewalkLatency::mean            0                       # Latency to complete the pagewalk
system.gpu.shader_mmu.pagewalkLatency::gmean            0                       # Latency to complete the pagewalk
system.gpu.shader_mmu.pagewalkLatency::stdev            0                       # Latency to complete the pagewalk
system.gpu.shader_mmu.pagewalkLatency::0          169    100.00%    100.00% # Latency to complete the pagewalk
system.gpu.shader_mmu.pagewalkLatency::1            0      0.00%    100.00% # Latency to complete the pagewalk
system.gpu.shader_mmu.pagewalkLatency::2            0      0.00%    100.00% # Latency to complete the pagewalk
system.gpu.shader_mmu.pagewalkLatency::3            0      0.00%    100.00% # Latency to complete the pagewalk
system.gpu.shader_mmu.pagewalkLatency::4            0      0.00%    100.00% # Latency to complete the pagewalk
system.gpu.shader_mmu.pagewalkLatency::5            0      0.00%    100.00% # Latency to complete the pagewalk
system.gpu.shader_mmu.pagewalkLatency::6            0      0.00%    100.00% # Latency to complete the pagewalk
system.gpu.shader_mmu.pagewalkLatency::7            0      0.00%    100.00% # Latency to complete the pagewalk
system.gpu.shader_mmu.pagewalkLatency::8            0      0.00%    100.00% # Latency to complete the pagewalk
system.gpu.shader_mmu.pagewalkLatency::9            0      0.00%    100.00% # Latency to complete the pagewalk
system.gpu.shader_mmu.pagewalkLatency::10            0      0.00%    100.00% # Latency to complete the pagewalk
system.gpu.shader_mmu.pagewalkLatency::11            0      0.00%    100.00% # Latency to complete the pagewalk
system.gpu.shader_mmu.pagewalkLatency::12            0      0.00%    100.00% # Latency to complete the pagewalk
system.gpu.shader_mmu.pagewalkLatency::13            0      0.00%    100.00% # Latency to complete the pagewalk
system.gpu.shader_mmu.pagewalkLatency::14            0      0.00%    100.00% # Latency to complete the pagewalk
system.gpu.shader_mmu.pagewalkLatency::15            0      0.00%    100.00% # Latency to complete the pagewalk
system.gpu.shader_mmu.pagewalkLatency::16            0      0.00%    100.00% # Latency to complete the pagewalk
system.gpu.shader_mmu.pagewalkLatency::17            0      0.00%    100.00% # Latency to complete the pagewalk
system.gpu.shader_mmu.pagewalkLatency::18            0      0.00%    100.00% # Latency to complete the pagewalk
system.gpu.shader_mmu.pagewalkLatency::19            0      0.00%    100.00% # Latency to complete the pagewalk
system.gpu.shader_mmu.pagewalkLatency::20            0      0.00%    100.00% # Latency to complete the pagewalk
system.gpu.shader_mmu.pagewalkLatency::21            0      0.00%    100.00% # Latency to complete the pagewalk
system.gpu.shader_mmu.pagewalkLatency::22            0      0.00%    100.00% # Latency to complete the pagewalk
system.gpu.shader_mmu.pagewalkLatency::23            0      0.00%    100.00% # Latency to complete the pagewalk
system.gpu.shader_mmu.pagewalkLatency::24            0      0.00%    100.00% # Latency to complete the pagewalk
system.gpu.shader_mmu.pagewalkLatency::25            0      0.00%    100.00% # Latency to complete the pagewalk
system.gpu.shader_mmu.pagewalkLatency::26            0      0.00%    100.00% # Latency to complete the pagewalk
system.gpu.shader_mmu.pagewalkLatency::27            0      0.00%    100.00% # Latency to complete the pagewalk
system.gpu.shader_mmu.pagewalkLatency::28            0      0.00%    100.00% # Latency to complete the pagewalk
system.gpu.shader_mmu.pagewalkLatency::29            0      0.00%    100.00% # Latency to complete the pagewalk
system.gpu.shader_mmu.pagewalkLatency::30            0      0.00%    100.00% # Latency to complete the pagewalk
system.gpu.shader_mmu.pagewalkLatency::31            0      0.00%    100.00% # Latency to complete the pagewalk
system.gpu.shader_mmu.pagewalkLatency::total          169                       # Latency to complete the pagewalk
system.gpu.kernels_started                          2                       # Number of kernels started
system.gpu.kernels_completed                        2                       # Number of kernels completed
system.gpu.shader_cores0.itb.hits                   0                       # Number of hits in this TLB
system.gpu.shader_cores0.itb.misses                 0                       # Number of misses in this TLB
system.gpu.shader_cores0.itb.hitRate              nan                       # Hit rate for this TLB
system.gpu.shader_cores0.local_loads                0                       # Number of loads from local space
system.gpu.shader_cores0.local_stores               0                       # Number of stores to local space
system.gpu.shader_cores0.shared_loads            5056                       # Number of loads from shared space
system.gpu.shader_cores0.shared_stores           3072                       # Number of stores to shared space
system.gpu.shader_cores0.param_kernel_loads         7296                       # Number of loads from kernel parameter space
system.gpu.shader_cores0.param_local_loads            0                       # Number of loads from local parameter space
system.gpu.shader_cores0.param_local_stores            0                       # Number of stores to local parameter space
system.gpu.shader_cores0.const_loads                0                       # Number of loads from constant space
system.gpu.shader_cores0.tex_loads                  0                       # Number of loads from texture space
system.gpu.shader_cores0.global_loads            8256                       # Number of loads from global space
system.gpu.shader_cores0.global_stores           3136                       # Number of stores to global space
system.gpu.shader_cores0.surf_loads                 0                       # Number of loads from surface space
system.gpu.shader_cores0.generic_loads              0                       # Number of loads from generic spaces (global, shared, local)
system.gpu.shader_cores0.generic_stores             0                       # Number of stores to generic spaces (global, shared, local)
system.gpu.shader_cores0.inst_cache_requests           12                       # Number of instruction cache requests sent
system.gpu.shader_cores0.inst_cache_retries            0                       # Number of instruction cache retries
system.gpu.shader_cores0.inst_counts::0             0                       # Inst counts: 1: ALU, 2: MAD, 3: CTRL, 4: SFU, 5: MEM, 6: TEX, 7: NOP
system.gpu.shader_cores0.inst_counts::1        130176                       # Inst counts: 1: ALU, 2: MAD, 3: CTRL, 4: SFU, 5: MEM, 6: TEX, 7: NOP
system.gpu.shader_cores0.inst_counts::2          2048                       # Inst counts: 1: ALU, 2: MAD, 3: CTRL, 4: SFU, 5: MEM, 6: TEX, 7: NOP
system.gpu.shader_cores0.inst_counts::3         20416                       # Inst counts: 1: ALU, 2: MAD, 3: CTRL, 4: SFU, 5: MEM, 6: TEX, 7: NOP
system.gpu.shader_cores0.inst_counts::4          6144                       # Inst counts: 1: ALU, 2: MAD, 3: CTRL, 4: SFU, 5: MEM, 6: TEX, 7: NOP
system.gpu.shader_cores0.inst_counts::5         26816                       # Inst counts: 1: ALU, 2: MAD, 3: CTRL, 4: SFU, 5: MEM, 6: TEX, 7: NOP
system.gpu.shader_cores0.inst_counts::6             0                       # Inst counts: 1: ALU, 2: MAD, 3: CTRL, 4: SFU, 5: MEM, 6: TEX, 7: NOP
system.gpu.shader_cores0.inst_counts::7             0                       # Inst counts: 1: ALU, 2: MAD, 3: CTRL, 4: SFU, 5: MEM, 6: TEX, 7: NOP
system.gpu.shader_cores0.activeCycles            8488                       # Number of cycles this shader was executing a CTA
system.gpu.shader_cores0.notStalledCycles         4743                       # Number of cycles this shader was actually executing at least one instance
system.gpu.shader_cores0.instInstances         185600                       # Total instructions executed by all PEs in the core
system.gpu.shader_cores0.instPerCycle       21.866164                       # Instruction instances per cycle
system.gpu.shader_cores0.kernels_completed            2                       # Number of kernels completed
system.gpu.shader_cores0.lsq.data_tlb.hits            0                       # Number of hits in this TLB
system.gpu.shader_cores0.lsq.data_tlb.misses            0                       # Number of misses in this TLB
system.gpu.shader_cores0.lsq.data_tlb.hitRate          nan                       # Hit rate for this TLB
system.gpu.shader_cores0.lsq.warpInstBufActive::samples     11280526                       # Histogram of number of active warp inst buffers at a given time
system.gpu.shader_cores0.lsq.warpInstBufActive::mean    17.739676                       # Histogram of number of active warp inst buffers at a given time
system.gpu.shader_cores0.lsq.warpInstBufActive::gmean          nan                       # Histogram of number of active warp inst buffers at a given time
system.gpu.shader_cores0.lsq.warpInstBufActive::stdev    17.986462                       # Histogram of number of active warp inst buffers at a given time
system.gpu.shader_cores0.lsq.warpInstBufActive::0      2705097     23.98%     23.98% # Histogram of number of active warp inst buffers at a given time
system.gpu.shader_cores0.lsq.warpInstBufActive::1       843110      7.47%     31.45% # Histogram of number of active warp inst buffers at a given time
system.gpu.shader_cores0.lsq.warpInstBufActive::2       452993      4.02%     35.47% # Histogram of number of active warp inst buffers at a given time
system.gpu.shader_cores0.lsq.warpInstBufActive::3       215779      1.91%     37.38% # Histogram of number of active warp inst buffers at a given time
system.gpu.shader_cores0.lsq.warpInstBufActive::4       124323      1.10%     38.48% # Histogram of number of active warp inst buffers at a given time
system.gpu.shader_cores0.lsq.warpInstBufActive::5       101459      0.90%     39.38% # Histogram of number of active warp inst buffers at a given time
system.gpu.shader_cores0.lsq.warpInstBufActive::6       207205      1.84%     41.22% # Histogram of number of active warp inst buffers at a given time
system.gpu.shader_cores0.lsq.warpInstBufActive::7       114320      1.01%     42.23% # Histogram of number of active warp inst buffers at a given time
system.gpu.shader_cores0.lsq.warpInstBufActive::8       180054      1.60%     43.83% # Histogram of number of active warp inst buffers at a given time
system.gpu.shader_cores0.lsq.warpInstBufActive::9        50015      0.44%     44.27% # Histogram of number of active warp inst buffers at a given time
system.gpu.shader_cores0.lsq.warpInstBufActive::10       171480      1.52%     45.79% # Histogram of number of active warp inst buffers at a given time
system.gpu.shader_cores0.lsq.warpInstBufActive::11        70021      0.62%     46.41% # Histogram of number of active warp inst buffers at a given time
system.gpu.shader_cores0.lsq.warpInstBufActive::12        81453      0.72%     47.14% # Histogram of number of active warp inst buffers at a given time
system.gpu.shader_cores0.lsq.warpInstBufActive::13        40012      0.35%     47.49% # Histogram of number of active warp inst buffers at a given time
system.gpu.shader_cores0.lsq.warpInstBufActive::14       221495      1.96%     49.46% # Histogram of number of active warp inst buffers at a given time
system.gpu.shader_cores0.lsq.warpInstBufActive::15        78595      0.70%     50.15% # Histogram of number of active warp inst buffers at a given time
system.gpu.shader_cores0.lsq.warpInstBufActive::16       501579      4.45%     54.60% # Histogram of number of active warp inst buffers at a given time
system.gpu.shader_cores0.lsq.warpInstBufActive::17       115749      1.03%     55.62% # Histogram of number of active warp inst buffers at a given time
system.gpu.shader_cores0.lsq.warpInstBufActive::18       354392      3.14%     58.77% # Histogram of number of active warp inst buffers at a given time
system.gpu.shader_cores0.lsq.warpInstBufActive::19        75737      0.67%     59.44% # Histogram of number of active warp inst buffers at a given time
system.gpu.shader_cores0.lsq.warpInstBufActive::20       131468      1.17%     60.60% # Histogram of number of active warp inst buffers at a given time
system.gpu.shader_cores0.lsq.warpInstBufActive::21       124323      1.10%     61.71% # Histogram of number of active warp inst buffers at a given time
system.gpu.shader_cores0.lsq.warpInstBufActive::22       115749      1.03%     62.73% # Histogram of number of active warp inst buffers at a given time
system.gpu.shader_cores0.lsq.warpInstBufActive::23        64305      0.57%     63.30% # Histogram of number of active warp inst buffers at a given time
system.gpu.shader_cores0.lsq.warpInstBufActive::24        81453      0.72%     64.02% # Histogram of number of active warp inst buffers at a given time
system.gpu.shader_cores0.lsq.warpInstBufActive::25        95743      0.85%     64.87% # Histogram of number of active warp inst buffers at a given time
system.gpu.shader_cores0.lsq.warpInstBufActive::26        68592      0.61%     65.48% # Histogram of number of active warp inst buffers at a given time
system.gpu.shader_cores0.lsq.warpInstBufActive::27        52873      0.47%     65.95% # Histogram of number of active warp inst buffers at a given time
system.gpu.shader_cores0.lsq.warpInstBufActive::28       201489      1.79%     67.73% # Histogram of number of active warp inst buffers at a given time
system.gpu.shader_cores0.lsq.warpInstBufActive::29       158619      1.41%     69.14% # Histogram of number of active warp inst buffers at a given time
system.gpu.shader_cores0.lsq.warpInstBufActive::30       214350      1.90%     71.04% # Histogram of number of active warp inst buffers at a given time
system.gpu.shader_cores0.lsq.warpInstBufActive::31       265794      2.36%     73.40% # Histogram of number of active warp inst buffers at a given time
system.gpu.shader_cores0.lsq.warpInstBufActive::32      1511882     13.40%     86.80% # Histogram of number of active warp inst buffers at a given time
system.gpu.shader_cores0.lsq.warpInstBufActive::33        78595      0.70%     87.50% # Histogram of number of active warp inst buffers at a given time
system.gpu.shader_cores0.lsq.warpInstBufActive::34        14290      0.13%     87.62% # Histogram of number of active warp inst buffers at a given time
system.gpu.shader_cores0.lsq.warpInstBufActive::35        12861      0.11%     87.74% # Histogram of number of active warp inst buffers at a given time
system.gpu.shader_cores0.lsq.warpInstBufActive::36        15719      0.14%     87.88% # Histogram of number of active warp inst buffers at a given time
system.gpu.shader_cores0.lsq.warpInstBufActive::37        25722      0.23%     88.10% # Histogram of number of active warp inst buffers at a given time
system.gpu.shader_cores0.lsq.warpInstBufActive::38        60018      0.53%     88.64% # Histogram of number of active warp inst buffers at a given time
system.gpu.shader_cores0.lsq.warpInstBufActive::39        32867      0.29%     88.93% # Histogram of number of active warp inst buffers at a given time
system.gpu.shader_cores0.lsq.warpInstBufActive::40        90027      0.80%     89.73% # Histogram of number of active warp inst buffers at a given time
system.gpu.shader_cores0.lsq.warpInstBufActive::41         2858      0.03%     89.75% # Histogram of number of active warp inst buffers at a given time
system.gpu.shader_cores0.lsq.warpInstBufActive::42        15719      0.14%     89.89% # Histogram of number of active warp inst buffers at a given time
system.gpu.shader_cores0.lsq.warpInstBufActive::43         2858      0.03%     89.92% # Histogram of number of active warp inst buffers at a given time
system.gpu.shader_cores0.lsq.warpInstBufActive::44        10003      0.09%     90.01% # Histogram of number of active warp inst buffers at a given time
system.gpu.shader_cores0.lsq.warpInstBufActive::45        31438      0.28%     90.28% # Histogram of number of active warp inst buffers at a given time
system.gpu.shader_cores0.lsq.warpInstBufActive::46        11432      0.10%     90.39% # Histogram of number of active warp inst buffers at a given time
system.gpu.shader_cores0.lsq.warpInstBufActive::47        35725      0.32%     90.70% # Histogram of number of active warp inst buffers at a given time
system.gpu.shader_cores0.lsq.warpInstBufActive::48        71450      0.63%     91.34% # Histogram of number of active warp inst buffers at a given time
system.gpu.shader_cores0.lsq.warpInstBufActive::49        60018      0.53%     91.87% # Histogram of number of active warp inst buffers at a given time
system.gpu.shader_cores0.lsq.warpInstBufActive::50        41441      0.37%     92.23% # Histogram of number of active warp inst buffers at a given time
system.gpu.shader_cores0.lsq.warpInstBufActive::51        47157      0.42%     92.65% # Histogram of number of active warp inst buffers at a given time
system.gpu.shader_cores0.lsq.warpInstBufActive::52        37154      0.33%     92.98% # Histogram of number of active warp inst buffers at a given time
system.gpu.shader_cores0.lsq.warpInstBufActive::53       152903      1.36%     94.34% # Histogram of number of active warp inst buffers at a given time
system.gpu.shader_cores0.lsq.warpInstBufActive::54        65734      0.58%     94.92% # Histogram of number of active warp inst buffers at a given time
system.gpu.shader_cores0.lsq.warpInstBufActive::55        30009      0.27%     95.19% # Histogram of number of active warp inst buffers at a given time
system.gpu.shader_cores0.lsq.warpInstBufActive::56         8574      0.08%     95.26% # Histogram of number of active warp inst buffers at a given time
system.gpu.shader_cores0.lsq.warpInstBufActive::57        30009      0.27%     95.53% # Histogram of number of active warp inst buffers at a given time
system.gpu.shader_cores0.lsq.warpInstBufActive::58        87169      0.77%     96.30% # Histogram of number of active warp inst buffers at a given time
system.gpu.shader_cores0.lsq.warpInstBufActive::59        50015      0.44%     96.74% # Histogram of number of active warp inst buffers at a given time
system.gpu.shader_cores0.lsq.warpInstBufActive::60        27151      0.24%     96.99% # Histogram of number of active warp inst buffers at a given time
system.gpu.shader_cores0.lsq.warpInstBufActive::61        44299      0.39%     97.38% # Histogram of number of active warp inst buffers at a given time
system.gpu.shader_cores0.lsq.warpInstBufActive::62        37154      0.33%     97.71% # Histogram of number of active warp inst buffers at a given time
system.gpu.shader_cores0.lsq.warpInstBufActive::63        52873      0.47%     98.18% # Histogram of number of active warp inst buffers at a given time
system.gpu.shader_cores0.lsq.warpInstBufActive::64       205776      1.82%    100.00% # Histogram of number of active warp inst buffers at a given time
system.gpu.shader_cores0.lsq.warpInstBufActive::total     11280526                       # Histogram of number of active warp inst buffers at a given time
system.gpu.shader_cores0.lsq.cacheAccesses     0.010654                       # Average number of concurrent outstanding cache accesses
system.gpu.shader_cores0.lsq.writebackBlockedCycles           86                       # Number of cycles blocked for core writeback stage
system.gpu.shader_cores0.lsq.mshrHitQueued          330                       # Number of hits on blocked lines in MSHRs
system.gpu.shader_cores0.lsq.mshrsFullCycles            0                       # Number of cycles stalled waiting for an MSHR
system.gpu.shader_cores0.lsq.mshrsFullCount            0                       # Number of times MSHRs filled
system.gpu.shader_cores0.lsq.warpCoalescedAccesses::samples          416                       # Number of coalesced accesses per warp instruction
system.gpu.shader_cores0.lsq.warpCoalescedAccesses::mean     1.769231                       # Number of coalesced accesses per warp instruction
system.gpu.shader_cores0.lsq.warpCoalescedAccesses::gmean     1.608176                       # Number of coalesced accesses per warp instruction
system.gpu.shader_cores0.lsq.warpCoalescedAccesses::stdev     0.763388                       # Number of coalesced accesses per warp instruction
system.gpu.shader_cores0.lsq.warpCoalescedAccesses::0            0      0.00%      0.00% # Number of coalesced accesses per warp instruction
system.gpu.shader_cores0.lsq.warpCoalescedAccesses::1          180     43.27%     43.27% # Number of coalesced accesses per warp instruction
system.gpu.shader_cores0.lsq.warpCoalescedAccesses::2          152     36.54%     79.81% # Number of coalesced accesses per warp instruction
system.gpu.shader_cores0.lsq.warpCoalescedAccesses::3           84     20.19%    100.00% # Number of coalesced accesses per warp instruction
system.gpu.shader_cores0.lsq.warpCoalescedAccesses::4            0      0.00%    100.00% # Number of coalesced accesses per warp instruction
system.gpu.shader_cores0.lsq.warpCoalescedAccesses::5            0      0.00%    100.00% # Number of coalesced accesses per warp instruction
system.gpu.shader_cores0.lsq.warpCoalescedAccesses::6            0      0.00%    100.00% # Number of coalesced accesses per warp instruction
system.gpu.shader_cores0.lsq.warpCoalescedAccesses::7            0      0.00%    100.00% # Number of coalesced accesses per warp instruction
system.gpu.shader_cores0.lsq.warpCoalescedAccesses::8            0      0.00%    100.00% # Number of coalesced accesses per warp instruction
system.gpu.shader_cores0.lsq.warpCoalescedAccesses::9            0      0.00%    100.00% # Number of coalesced accesses per warp instruction
system.gpu.shader_cores0.lsq.warpCoalescedAccesses::10            0      0.00%    100.00% # Number of coalesced accesses per warp instruction
system.gpu.shader_cores0.lsq.warpCoalescedAccesses::11            0      0.00%    100.00% # Number of coalesced accesses per warp instruction
system.gpu.shader_cores0.lsq.warpCoalescedAccesses::12            0      0.00%    100.00% # Number of coalesced accesses per warp instruction
system.gpu.shader_cores0.lsq.warpCoalescedAccesses::13            0      0.00%    100.00% # Number of coalesced accesses per warp instruction
system.gpu.shader_cores0.lsq.warpCoalescedAccesses::14            0      0.00%    100.00% # Number of coalesced accesses per warp instruction
system.gpu.shader_cores0.lsq.warpCoalescedAccesses::15            0      0.00%    100.00% # Number of coalesced accesses per warp instruction
system.gpu.shader_cores0.lsq.warpCoalescedAccesses::16            0      0.00%    100.00% # Number of coalesced accesses per warp instruction
system.gpu.shader_cores0.lsq.warpCoalescedAccesses::17            0      0.00%    100.00% # Number of coalesced accesses per warp instruction
system.gpu.shader_cores0.lsq.warpCoalescedAccesses::18            0      0.00%    100.00% # Number of coalesced accesses per warp instruction
system.gpu.shader_cores0.lsq.warpCoalescedAccesses::19            0      0.00%    100.00% # Number of coalesced accesses per warp instruction
system.gpu.shader_cores0.lsq.warpCoalescedAccesses::20            0      0.00%    100.00% # Number of coalesced accesses per warp instruction
system.gpu.shader_cores0.lsq.warpCoalescedAccesses::21            0      0.00%    100.00% # Number of coalesced accesses per warp instruction
system.gpu.shader_cores0.lsq.warpCoalescedAccesses::22            0      0.00%    100.00% # Number of coalesced accesses per warp instruction
system.gpu.shader_cores0.lsq.warpCoalescedAccesses::23            0      0.00%    100.00% # Number of coalesced accesses per warp instruction
system.gpu.shader_cores0.lsq.warpCoalescedAccesses::24            0      0.00%    100.00% # Number of coalesced accesses per warp instruction
system.gpu.shader_cores0.lsq.warpCoalescedAccesses::25            0      0.00%    100.00% # Number of coalesced accesses per warp instruction
system.gpu.shader_cores0.lsq.warpCoalescedAccesses::26            0      0.00%    100.00% # Number of coalesced accesses per warp instruction
system.gpu.shader_cores0.lsq.warpCoalescedAccesses::27            0      0.00%    100.00% # Number of coalesced accesses per warp instruction
system.gpu.shader_cores0.lsq.warpCoalescedAccesses::28            0      0.00%    100.00% # Number of coalesced accesses per warp instruction
system.gpu.shader_cores0.lsq.warpCoalescedAccesses::29            0      0.00%    100.00% # Number of coalesced accesses per warp instruction
system.gpu.shader_cores0.lsq.warpCoalescedAccesses::30            0      0.00%    100.00% # Number of coalesced accesses per warp instruction
system.gpu.shader_cores0.lsq.warpCoalescedAccesses::31            0      0.00%    100.00% # Number of coalesced accesses per warp instruction
system.gpu.shader_cores0.lsq.warpCoalescedAccesses::32            0      0.00%    100.00% # Number of coalesced accesses per warp instruction
system.gpu.shader_cores0.lsq.warpCoalescedAccesses::total          416                       # Number of coalesced accesses per warp instruction
system.gpu.shader_cores0.lsq.warpLatencyRead::samples          288                       # Latency in cycles for whole warp to finish the read
system.gpu.shader_cores0.lsq.warpLatencyRead::mean   245.392361                       # Latency in cycles for whole warp to finish the read
system.gpu.shader_cores0.lsq.warpLatencyRead::gmean    94.950171                       # Latency in cycles for whole warp to finish the read
system.gpu.shader_cores0.lsq.warpLatencyRead::stdev   252.570732                       # Latency in cycles for whole warp to finish the read
system.gpu.shader_cores0.lsq.warpLatencyRead::0-63          108     37.50%     37.50% # Latency in cycles for whole warp to finish the read
system.gpu.shader_cores0.lsq.warpLatencyRead::64-127           14      4.86%     42.36% # Latency in cycles for whole warp to finish the read
system.gpu.shader_cores0.lsq.warpLatencyRead::128-191           35     12.15%     54.51% # Latency in cycles for whole warp to finish the read
system.gpu.shader_cores0.lsq.warpLatencyRead::192-255           18      6.25%     60.76% # Latency in cycles for whole warp to finish the read
system.gpu.shader_cores0.lsq.warpLatencyRead::256-319           22      7.64%     68.40% # Latency in cycles for whole warp to finish the read
system.gpu.shader_cores0.lsq.warpLatencyRead::320-383           17      5.90%     74.31% # Latency in cycles for whole warp to finish the read
system.gpu.shader_cores0.lsq.warpLatencyRead::384-447           15      5.21%     79.51% # Latency in cycles for whole warp to finish the read
system.gpu.shader_cores0.lsq.warpLatencyRead::448-511            5      1.74%     81.25% # Latency in cycles for whole warp to finish the read
system.gpu.shader_cores0.lsq.warpLatencyRead::512-575           16      5.56%     86.81% # Latency in cycles for whole warp to finish the read
system.gpu.shader_cores0.lsq.warpLatencyRead::576-639           13      4.51%     91.32% # Latency in cycles for whole warp to finish the read
system.gpu.shader_cores0.lsq.warpLatencyRead::640-703            7      2.43%     93.75% # Latency in cycles for whole warp to finish the read
system.gpu.shader_cores0.lsq.warpLatencyRead::704-767            6      2.08%     95.83% # Latency in cycles for whole warp to finish the read
system.gpu.shader_cores0.lsq.warpLatencyRead::768-831            1      0.35%     96.18% # Latency in cycles for whole warp to finish the read
system.gpu.shader_cores0.lsq.warpLatencyRead::832-895            4      1.39%     97.57% # Latency in cycles for whole warp to finish the read
system.gpu.shader_cores0.lsq.warpLatencyRead::896-959            6      2.08%     99.65% # Latency in cycles for whole warp to finish the read
system.gpu.shader_cores0.lsq.warpLatencyRead::960-1023            1      0.35%    100.00% # Latency in cycles for whole warp to finish the read
system.gpu.shader_cores0.lsq.warpLatencyRead::total          288                       # Latency in cycles for whole warp to finish the read
system.gpu.shader_cores0.lsq.warpLatencyWrite::samples          128                       # Latency in cycles for whole warp to finish the write
system.gpu.shader_cores0.lsq.warpLatencyWrite::mean   376.218750                       # Latency in cycles for whole warp to finish the write
system.gpu.shader_cores0.lsq.warpLatencyWrite::gmean   336.610555                       # Latency in cycles for whole warp to finish the write
system.gpu.shader_cores0.lsq.warpLatencyWrite::stdev   172.392381                       # Latency in cycles for whole warp to finish the write
system.gpu.shader_cores0.lsq.warpLatencyWrite::0-63            0      0.00%      0.00% # Latency in cycles for whole warp to finish the write
system.gpu.shader_cores0.lsq.warpLatencyWrite::64-127            0      0.00%      0.00% # Latency in cycles for whole warp to finish the write
system.gpu.shader_cores0.lsq.warpLatencyWrite::128-191           17     13.28%     13.28% # Latency in cycles for whole warp to finish the write
system.gpu.shader_cores0.lsq.warpLatencyWrite::192-255           27     21.09%     34.38% # Latency in cycles for whole warp to finish the write
system.gpu.shader_cores0.lsq.warpLatencyWrite::256-319           18     14.06%     48.44% # Latency in cycles for whole warp to finish the write
system.gpu.shader_cores0.lsq.warpLatencyWrite::320-383           11      8.59%     57.03% # Latency in cycles for whole warp to finish the write
system.gpu.shader_cores0.lsq.warpLatencyWrite::384-447            8      6.25%     63.28% # Latency in cycles for whole warp to finish the write
system.gpu.shader_cores0.lsq.warpLatencyWrite::448-511            7      5.47%     68.75% # Latency in cycles for whole warp to finish the write
system.gpu.shader_cores0.lsq.warpLatencyWrite::512-575           17     13.28%     82.03% # Latency in cycles for whole warp to finish the write
system.gpu.shader_cores0.lsq.warpLatencyWrite::576-639           15     11.72%     93.75% # Latency in cycles for whole warp to finish the write
system.gpu.shader_cores0.lsq.warpLatencyWrite::640-703            6      4.69%     98.44% # Latency in cycles for whole warp to finish the write
system.gpu.shader_cores0.lsq.warpLatencyWrite::704-767            2      1.56%    100.00% # Latency in cycles for whole warp to finish the write
system.gpu.shader_cores0.lsq.warpLatencyWrite::768-831            0      0.00%    100.00% # Latency in cycles for whole warp to finish the write
system.gpu.shader_cores0.lsq.warpLatencyWrite::832-895            0      0.00%    100.00% # Latency in cycles for whole warp to finish the write
system.gpu.shader_cores0.lsq.warpLatencyWrite::896-959            0      0.00%    100.00% # Latency in cycles for whole warp to finish the write
system.gpu.shader_cores0.lsq.warpLatencyWrite::960-1023            0      0.00%    100.00% # Latency in cycles for whole warp to finish the write
system.gpu.shader_cores0.lsq.warpLatencyWrite::total          128                       # Latency in cycles for whole warp to finish the write
system.gpu.shader_cores0.lsq.warpLatencyFence::samples          288                       # Latency in cycles for whole warp to finish the fence
system.gpu.shader_cores0.lsq.warpLatencyFence::mean    73.638889                       # Latency in cycles for whole warp to finish the fence
system.gpu.shader_cores0.lsq.warpLatencyFence::gmean    14.306012                       # Latency in cycles for whole warp to finish the fence
system.gpu.shader_cores0.lsq.warpLatencyFence::stdev   147.830801                       # Latency in cycles for whole warp to finish the fence
system.gpu.shader_cores0.lsq.warpLatencyFence::0-63          224     77.78%     77.78% # Latency in cycles for whole warp to finish the fence
system.gpu.shader_cores0.lsq.warpLatencyFence::64-127            0      0.00%     77.78% # Latency in cycles for whole warp to finish the fence
system.gpu.shader_cores0.lsq.warpLatencyFence::128-191           14      4.86%     82.64% # Latency in cycles for whole warp to finish the fence
system.gpu.shader_cores0.lsq.warpLatencyFence::192-255           24      8.33%     90.97% # Latency in cycles for whole warp to finish the fence
system.gpu.shader_cores0.lsq.warpLatencyFence::256-319            7      2.43%     93.40% # Latency in cycles for whole warp to finish the fence
system.gpu.shader_cores0.lsq.warpLatencyFence::320-383            0      0.00%     93.40% # Latency in cycles for whole warp to finish the fence
system.gpu.shader_cores0.lsq.warpLatencyFence::384-447            1      0.35%     93.75% # Latency in cycles for whole warp to finish the fence
system.gpu.shader_cores0.lsq.warpLatencyFence::448-511            2      0.69%     94.44% # Latency in cycles for whole warp to finish the fence
system.gpu.shader_cores0.lsq.warpLatencyFence::512-575            9      3.12%     97.57% # Latency in cycles for whole warp to finish the fence
system.gpu.shader_cores0.lsq.warpLatencyFence::576-639            7      2.43%    100.00% # Latency in cycles for whole warp to finish the fence
system.gpu.shader_cores0.lsq.warpLatencyFence::640-703            0      0.00%    100.00% # Latency in cycles for whole warp to finish the fence
system.gpu.shader_cores0.lsq.warpLatencyFence::704-767            0      0.00%    100.00% # Latency in cycles for whole warp to finish the fence
system.gpu.shader_cores0.lsq.warpLatencyFence::768-831            0      0.00%    100.00% # Latency in cycles for whole warp to finish the fence
system.gpu.shader_cores0.lsq.warpLatencyFence::832-895            0      0.00%    100.00% # Latency in cycles for whole warp to finish the fence
system.gpu.shader_cores0.lsq.warpLatencyFence::896-959            0      0.00%    100.00% # Latency in cycles for whole warp to finish the fence
system.gpu.shader_cores0.lsq.warpLatencyFence::960-1023            0      0.00%    100.00% # Latency in cycles for whole warp to finish the fence
system.gpu.shader_cores0.lsq.warpLatencyFence::total          288                       # Latency in cycles for whole warp to finish the fence
system.gpu.shader_cores0.lsq.warpLatencyAtomic::samples            0                       # Latency in cycles for whole warp to finish the atomic
system.gpu.shader_cores0.lsq.warpLatencyAtomic::mean          nan                       # Latency in cycles for whole warp to finish the atomic
system.gpu.shader_cores0.lsq.warpLatencyAtomic::gmean          nan                       # Latency in cycles for whole warp to finish the atomic
system.gpu.shader_cores0.lsq.warpLatencyAtomic::stdev          nan                       # Latency in cycles for whole warp to finish the atomic
system.gpu.shader_cores0.lsq.warpLatencyAtomic::0            0                       # Latency in cycles for whole warp to finish the atomic
system.gpu.shader_cores0.lsq.warpLatencyAtomic::1            0                       # Latency in cycles for whole warp to finish the atomic
system.gpu.shader_cores0.lsq.warpLatencyAtomic::2            0                       # Latency in cycles for whole warp to finish the atomic
system.gpu.shader_cores0.lsq.warpLatencyAtomic::3            0                       # Latency in cycles for whole warp to finish the atomic
system.gpu.shader_cores0.lsq.warpLatencyAtomic::4            0                       # Latency in cycles for whole warp to finish the atomic
system.gpu.shader_cores0.lsq.warpLatencyAtomic::5            0                       # Latency in cycles for whole warp to finish the atomic
system.gpu.shader_cores0.lsq.warpLatencyAtomic::6            0                       # Latency in cycles for whole warp to finish the atomic
system.gpu.shader_cores0.lsq.warpLatencyAtomic::7            0                       # Latency in cycles for whole warp to finish the atomic
system.gpu.shader_cores0.lsq.warpLatencyAtomic::8            0                       # Latency in cycles for whole warp to finish the atomic
system.gpu.shader_cores0.lsq.warpLatencyAtomic::9            0                       # Latency in cycles for whole warp to finish the atomic
system.gpu.shader_cores0.lsq.warpLatencyAtomic::10            0                       # Latency in cycles for whole warp to finish the atomic
system.gpu.shader_cores0.lsq.warpLatencyAtomic::11            0                       # Latency in cycles for whole warp to finish the atomic
system.gpu.shader_cores0.lsq.warpLatencyAtomic::12            0                       # Latency in cycles for whole warp to finish the atomic
system.gpu.shader_cores0.lsq.warpLatencyAtomic::13            0                       # Latency in cycles for whole warp to finish the atomic
system.gpu.shader_cores0.lsq.warpLatencyAtomic::14            0                       # Latency in cycles for whole warp to finish the atomic
[...]
system.ruby.L1Cache_Controller.All_acks  |           2    100.00%    100.00% |           0      0.00%    100.00%
system.ruby.L1Cache_Controller.All_acks::total            2                      
system.ruby.L1Cache_Controller.All_acks_no_sharers |        1471    100.00%    100.00% |           0      0.00%    100.00%
system.ruby.L1Cache_Controller.All_acks_no_sharers::total         1471                      
system.ruby.L1Cache_Controller.I.Load    |         161    100.00%    100.00% |           0      0.00%    100.00%
system.ruby.L1Cache_Controller.I.Load::total          161                      
system.ruby.L1Cache_Controller.I.Ifetch  |         460    100.00%    100.00% |           0      0.00%    100.00%
system.ruby.L1Cache_Controller.I.Ifetch::total          460                      
system.ruby.L1Cache_Controller.I.Store   |         806    100.00%    100.00% |           0      0.00%    100.00%
system.ruby.L1Cache_Controller.I.Store::total          806                      
system.ruby.L1Cache_Controller.I.L1_to_L2 |         107    100.00%    100.00% |           0      0.00%    100.00%
system.ruby.L1Cache_Controller.I.L1_to_L2::total          107                      
system.ruby.L1Cache_Controller.I.Trigger_L2_to_L1D |          44    100.00%    100.00% |           0      0.00%    100.00%
system.ruby.L1Cache_Controller.I.Trigger_L2_to_L1D::total           44                      
system.ruby.L1Cache_Controller.I.Other_GETX |         556     28.54%     28.54% |        1392     71.46%    100.00%
system.ruby.L1Cache_Controller.I.Other_GETX::total         1948                      
system.ruby.L1Cache_Controller.I.Other_GETS |         718     29.99%     29.99% |        1676     70.01%    100.00%
system.ruby.L1Cache_Controller.I.Other_GETS::total         2394                      
system.ruby.L1Cache_Controller.S.Load    |           2    100.00%    100.00% |           0      0.00%    100.00%
system.ruby.L1Cache_Controller.S.Load::total            2                      
system.ruby.L1Cache_Controller.S.Store   |           2    100.00%    100.00% |           0      0.00%    100.00%
system.ruby.L1Cache_Controller.S.Store::total            2                      
system.ruby.L1Cache_Controller.S.Other_GETS |           1    100.00%    100.00% |           0      0.00%    100.00%
system.ruby.L1Cache_Controller.S.Other_GETS::total            1                      
system.ruby.L1Cache_Controller.O.Load    |           6    100.00%    100.00% |           0      0.00%    100.00%
system.ruby.L1Cache_Controller.O.Load::total            6                      
system.ruby.L1Cache_Controller.O.Other_GETX |           5    100.00%    100.00% |           0      0.00%    100.00%
system.ruby.L1Cache_Controller.O.Other_GETX::total            5                      
system.ruby.L1Cache_Controller.O.Other_GETS |           1    100.00%    100.00% |           0      0.00%    100.00%
system.ruby.L1Cache_Controller.O.Other_GETS::total            1                      
system.ruby.L1Cache_Controller.M.Load    |      103169    100.00%    100.00% |           0      0.00%    100.00%
system.ruby.L1Cache_Controller.M.Load::total       103169                      
system.ruby.L1Cache_Controller.M.Ifetch  |     6659581    100.00%    100.00% |           0      0.00%    100.00%
system.ruby.L1Cache_Controller.M.Ifetch::total      6659581                      
system.ruby.L1Cache_Controller.M.Store   |          31    100.00%    100.00% |           0      0.00%    100.00%
system.ruby.L1Cache_Controller.M.Store::total           31                      
system.ruby.L1Cache_Controller.M.L1_to_L2 |        5409    100.00%    100.00% |           0      0.00%    100.00%
system.ruby.L1Cache_Controller.M.L1_to_L2::total         5409                      
system.ruby.L1Cache_Controller.M.Trigger_L2_to_L1D |          22    100.00%    100.00% |           0      0.00%    100.00%
system.ruby.L1Cache_Controller.M.Trigger_L2_to_L1D::total           22                      
system.ruby.L1Cache_Controller.M.Trigger_L2_to_L1I |        5070    100.00%    100.00% |           0      0.00%    100.00%
system.ruby.L1Cache_Controller.M.Trigger_L2_to_L1I::total         5070                      
system.ruby.L1Cache_Controller.M.Other_GETX |          15    100.00%    100.00% |           0      0.00%    100.00%
system.ruby.L1Cache_Controller.M.Other_GETX::total           15                      
system.ruby.L1Cache_Controller.M.Other_GETS |           6    100.00%    100.00% |           0      0.00%    100.00%
system.ruby.L1Cache_Controller.M.Other_GETS::total            6                      
system.ruby.L1Cache_Controller.MM.Load   |     1136625    100.00%    100.00% |           0      0.00%    100.00%
system.ruby.L1Cache_Controller.MM.Load::total      1136625                      
system.ruby.L1Cache_Controller.MM.Store  |      844688    100.00%    100.00% |           0      0.00%    100.00%
system.ruby.L1Cache_Controller.MM.Store::total       844688                      
system.ruby.L1Cache_Controller.MM.L1_to_L2 |         701    100.00%    100.00% |           0      0.00%    100.00%
system.ruby.L1Cache_Controller.MM.L1_to_L2::total          701                      
system.ruby.L1Cache_Controller.MM.Trigger_L2_to_L1D |         453    100.00%    100.00% |           0      0.00%    100.00%
system.ruby.L1Cache_Controller.MM.Trigger_L2_to_L1D::total          453                      
system.ruby.L1Cache_Controller.MM.Other_GETX |           8    100.00%    100.00% |           0      0.00%    100.00%
system.ruby.L1Cache_Controller.MM.Other_GETX::total            8                      
system.ruby.L1Cache_Controller.MM.Other_GETS |         285    100.00%    100.00% |           0      0.00%    100.00%
system.ruby.L1Cache_Controller.MM.Other_GETS::total          285                      
system.ruby.L1Cache_Controller.IR.Load   |          44    100.00%    100.00% |           0      0.00%    100.00%
system.ruby.L1Cache_Controller.IR.Load::total           44                      
system.ruby.L1Cache_Controller.MR.Load   |          21    100.00%    100.00% |           0      0.00%    100.00%
system.ruby.L1Cache_Controller.MR.Load::total           21                      
system.ruby.L1Cache_Controller.MR.Ifetch |        5070    100.00%    100.00% |           0      0.00%    100.00%
system.ruby.L1Cache_Controller.MR.Ifetch::total         5070                      
system.ruby.L1Cache_Controller.MR.Store  |           1    100.00%    100.00% |           0      0.00%    100.00%
system.ruby.L1Cache_Controller.MR.Store::total            1                      
system.ruby.L1Cache_Controller.MMR.Load  |         432    100.00%    100.00% |           0      0.00%    100.00%
system.ruby.L1Cache_Controller.MMR.Load::total          432                      
system.ruby.L1Cache_Controller.MMR.Store |          21    100.00%    100.00% |           0      0.00%    100.00%
system.ruby.L1Cache_Controller.MMR.Store::total           21                      
system.ruby.L1Cache_Controller.IM.Ack    |        1610    100.00%    100.00% |           0      0.00%    100.00%
system.ruby.L1Cache_Controller.IM.Ack::total         1610                      
system.ruby.L1Cache_Controller.IM.Data   |           1    100.00%    100.00% |           0      0.00%    100.00%
system.ruby.L1Cache_Controller.IM.Data::total            1                      
system.ruby.L1Cache_Controller.IM.Exclusive_Data |         805    100.00%    100.00% |           0      0.00%    100.00%
system.ruby.L1Cache_Controller.IM.Exclusive_Data::total          805                      
system.ruby.L1Cache_Controller.SM.Ack    |           2    100.00%    100.00% |           0      0.00%    100.00%
system.ruby.L1Cache_Controller.SM.Ack::total            2                      
system.ruby.L1Cache_Controller.SM.Data   |           2    100.00%    100.00% |           0      0.00%    100.00%
system.ruby.L1Cache_Controller.SM.Data::total            2                      
system.ruby.L1Cache_Controller.ISM.All_acks_no_sharers |           3    100.00%    100.00% |           0      0.00%    100.00%
system.ruby.L1Cache_Controller.ISM.All_acks_no_sharers::total            3                      
system.ruby.L1Cache_Controller.M_W.All_acks_no_sharers |         663    100.00%    100.00% |           0      0.00%    100.00%
system.ruby.L1Cache_Controller.M_W.All_acks_no_sharers::total          663                      
system.ruby.L1Cache_Controller.MM_W.All_acks_no_sharers |         805    100.00%    100.00% |           0      0.00%    100.00%
system.ruby.L1Cache_Controller.MM_W.All_acks_no_sharers::total          805                      
system.ruby.L1Cache_Controller.IS.Ack    |        1326    100.00%    100.00% |           0      0.00%    100.00%
system.ruby.L1Cache_Controller.IS.Ack::total         1326                      
system.ruby.L1Cache_Controller.IS.Shared_Data |           2    100.00%    100.00% |           0      0.00%    100.00%
system.ruby.L1Cache_Controller.IS.Shared_Data::total            2                      
system.ruby.L1Cache_Controller.IS.Exclusive_Data |         663    100.00%    100.00% |           0      0.00%    100.00%
system.ruby.L1Cache_Controller.IS.Exclusive_Data::total          663                      
system.ruby.L1Cache_Controller.SS.All_acks |           2    100.00%    100.00% |           0      0.00%    100.00%
system.ruby.L1Cache_Controller.SS.All_acks::total            2                      
system.ruby.L1Cache_Controller.IT.Complete_L2_to_L1 |          44    100.00%    100.00% |           0      0.00%    100.00%
system.ruby.L1Cache_Controller.IT.Complete_L2_to_L1::total           44                      
system.ruby.L1Cache_Controller.MT.Complete_L2_to_L1 |        5092    100.00%    100.00% |           0      0.00%    100.00%
system.ruby.L1Cache_Controller.MT.Complete_L2_to_L1::total         5092                      
system.ruby.L1Cache_Controller.MMT.Complete_L2_to_L1 |         453    100.00%    100.00% |           0      0.00%    100.00%
system.ruby.L1Cache_Controller.MMT.Complete_L2_to_L1::total          453                      
system.ruby.GPUL1Cache_Controller.Load   |         428     25.28%     25.28% |         421     24.87%     50.15% |         428     25.28%     75.43% |         416     24.57%    100.00%
system.ruby.GPUL1Cache_Controller.Load::total         1693                      
system.ruby.GPUL1Cache_Controller.Ifetch |          12     24.49%     24.49% |          13     26.53%     51.02% |          12     24.49%     75.51% |          12     24.49%    100.00%
system.ruby.GPUL1Cache_Controller.Ifetch::total           49                      
system.ruby.GPUL1Cache_Controller.Store  |         308     24.48%     24.48% |         322     25.60%     50.08% |         308     24.48%     74.56% |         320     25.44%    100.00%
system.ruby.GPUL1Cache_Controller.Store::total         1258                      
system.ruby.GPUL1Cache_Controller.Data   |         151     24.20%     24.20% |         163     26.12%     50.32% |         152     24.36%     74.68% |         158     25.32%    100.00%
system.ruby.GPUL1Cache_Controller.Data::total          624                      
system.ruby.GPUL1Cache_Controller.Write_Ack |         308     24.48%     24.48% |         322     25.60%     50.08% |         308     24.48%     74.56% |         320     25.44%    100.00%
system.ruby.GPUL1Cache_Controller.Write_Ack::total         1258                      
system.ruby.GPUL1Cache_Controller.I.Load |         139     24.17%     24.17% |         150     26.09%     50.26% |         140     24.35%     74.61% |         146     25.39%    100.00%
system.ruby.GPUL1Cache_Controller.I.Load::total          575                      
system.ruby.GPUL1Cache_Controller.I.Ifetch |          12     24.49%     24.49% |          13     26.53%     51.02% |          12     24.49%     75.51% |          12     24.49%    100.00%
system.ruby.GPUL1Cache_Controller.I.Ifetch::total           49                      
system.ruby.GPUL1Cache_Controller.I.Store |         178     25.04%     25.04% |         177     24.89%     49.93% |         177     24.89%     74.82% |         179     25.18%    100.00%
system.ruby.GPUL1Cache_Controller.I.Store::total          711                      
system.ruby.GPUL1Cache_Controller.V.Load |         289     25.85%     25.85% |         271     24.24%     50.09% |         288     25.76%     75.85% |         270     24.15%    100.00%
system.ruby.GPUL1Cache_Controller.V.Load::total         1118                      
system.ruby.GPUL1Cache_Controller.V.Store |         130     23.77%     23.77% |         145     26.51%     50.27% |         131     23.95%     74.22% |         141     25.78%    100.00%
system.ruby.GPUL1Cache_Controller.V.Store::total          547                      
system.ruby.GPUL1Cache_Controller.IA.Write_Ack |         308     24.48%     24.48% |         322     25.60%     50.08% |         308     24.48%     74.56% |         320     25.44%    100.00%
system.ruby.GPUL1Cache_Controller.IA.Write_Ack::total         1258                      
system.ruby.GPUL1Cache_Controller.IV.Data |         151     24.20%     24.20% |         163     26.12%     50.32% |         152     24.36%     74.68% |         158     25.32%    100.00%
system.ruby.GPUL1Cache_Controller.IV.Data::total          624                      
system.ruby.GPUL2Cache_Controller.Get             723      0.00%      0.00%
system.ruby.GPUL2Cache_Controller.Store          1266      0.00%      0.00%
system.ruby.GPUL2Cache_Controller.Other_GETX         1384      0.00%      0.00%
system.ruby.GPUL2Cache_Controller.Other_GETS         1242      0.00%      0.00%
system.ruby.GPUL2Cache_Controller.Ack             881      0.00%      0.00%
system.ruby.GPUL2Cache_Controller.Shared_Data            1      0.00%      0.00%
system.ruby.GPUL2Cache_Controller.Exclusive_Data          441      0.00%      0.00%
system.ruby.GPUL2Cache_Controller.All_acks            1      0.00%      0.00%
system.ruby.GPUL2Cache_Controller.All_acks_no_sharers          441      0.00%      0.00%
system.ruby.GPUL2Cache_Controller.I.Get           434      0.00%      0.00%
system.ruby.GPUL2Cache_Controller.I.Store            8      0.00%      0.00%
system.ruby.GPUL2Cache_Controller.I.Other_GETX         1244      0.00%      0.00%
system.ruby.GPUL2Cache_Controller.I.Other_GETS         1084      0.00%      0.00%
system.ruby.GPUL2Cache_Controller.S.Get             3      0.00%      0.00%
system.ruby.GPUL2Cache_Controller.O.Other_GETX            3      0.00%      0.00%
system.ruby.GPUL2Cache_Controller.O.Other_GETS            1      0.00%      0.00%
system.ruby.GPUL2Cache_Controller.M.Get            93      0.00%      0.00%
system.ruby.GPUL2Cache_Controller.M.Store          411      0.00%      0.00%
system.ruby.GPUL2Cache_Controller.M.Other_GETS           10      0.00%      0.00%
system.ruby.GPUL2Cache_Controller.MM.Get           91      0.00%      0.00%
system.ruby.GPUL2Cache_Controller.MM.Store          839      0.00%      0.00%
system.ruby.GPUL2Cache_Controller.MM.Other_GETX          137      0.00%      0.00%
system.ruby.GPUL2Cache_Controller.MM.Other_GETS          147      0.00%      0.00%
system.ruby.GPUL2Cache_Controller.IM.Store            8      0.00%      0.00%
system.ruby.GPUL2Cache_Controller.IM.Ack           14      0.00%      0.00%
system.ruby.GPUL2Cache_Controller.IM.Exclusive_Data            8      0.00%      0.00%
system.ruby.GPUL2Cache_Controller.IS.Get           99      0.00%      0.00%
system.ruby.GPUL2Cache_Controller.IS.Ack          866      0.00%      0.00%
system.ruby.GPUL2Cache_Controller.IS.Shared_Data            1      0.00%      0.00%
system.ruby.GPUL2Cache_Controller.IS.Exclusive_Data          433      0.00%      0.00%
system.ruby.GPUL2Cache_Controller.SS.All_acks            1      0.00%      0.00%
system.ruby.GPUL2Cache_Controller.M_W.Get            3      0.00%      0.00%
system.ruby.GPUL2Cache_Controller.M_W.Ack            1      0.00%      0.00%
system.ruby.GPUL2Cache_Controller.M_W.All_acks_no_sharers          433      0.00%      0.00%
system.ruby.GPUL2Cache_Controller.MM_W.All_acks_no_sharers            8      0.00%      0.00%
system.ruby.Directory_Controller.GETX             816      0.00%      0.00%
system.ruby.Directory_Controller.GETS            1099      0.00%      0.00%
system.ruby.Directory_Controller.UnblockS            3      0.00%      0.00%
system.ruby.Directory_Controller.UnblockM         1912      0.00%      0.00%
system.ruby.Directory_Controller.DMA_READ          577      0.00%      0.00%
system.ruby.Directory_Controller.DMA_WRITE          576      0.00%      0.00%
system.ruby.Directory_Controller.Memory_Data         2036      0.00%      0.00%
system.ruby.Directory_Controller.Memory_Ack          576      0.00%      0.00%
system.ruby.Directory_Controller.Ack             2851      0.00%      0.00%
system.ruby.Directory_Controller.Shared_Ack            1      0.00%      0.00%
system.ruby.Directory_Controller.Shared_Data           15      0.00%      0.00%
system.ruby.Directory_Controller.Data               5      0.00%      0.00%
system.ruby.Directory_Controller.Exclusive_Data          587      0.00%      0.00%
system.ruby.Directory_Controller.All_acks_and_shared_data           15      0.00%      0.00%
system.ruby.Directory_Controller.All_acks_and_data_no_sharers         1138      0.00%      0.00%
system.ruby.Directory_Controller.NX.GETX            1      0.00%      0.00%
system.ruby.Directory_Controller.NX.DMA_READ            1      0.00%      0.00%
system.ruby.Directory_Controller.NO.GETX            3      0.00%      0.00%
system.ruby.Directory_Controller.NO.GETS            5      0.00%      0.00%
system.ruby.Directory_Controller.NO.DMA_READ          443      0.00%      0.00%
system.ruby.Directory_Controller.NO.DMA_WRITE          157      0.00%      0.00%
system.ruby.Directory_Controller.S.GETX             2      0.00%      0.00%
system.ruby.Directory_Controller.S.DMA_READ            1      0.00%      0.00%
system.ruby.Directory_Controller.S.DMA_WRITE            5      0.00%      0.00%
system.ruby.Directory_Controller.E.GETX           810      0.00%      0.00%
system.ruby.Directory_Controller.E.GETS          1094      0.00%      0.00%
system.ruby.Directory_Controller.E.DMA_READ          132      0.00%      0.00%
system.ruby.Directory_Controller.E.DMA_WRITE          414      0.00%      0.00%
system.ruby.Directory_Controller.NO_B.UnblockS            3      0.00%      0.00%
system.ruby.Directory_Controller.NO_B.UnblockM         1912      0.00%      0.00%
system.ruby.Directory_Controller.NO_B_W.Memory_Data         1904      0.00%      0.00%
system.ruby.Directory_Controller.NO_DW_B_W.Ack         1566      0.00%      0.00%
system.ruby.Directory_Controller.NO_DW_B_W.Data            5      0.00%      0.00%
system.ruby.Directory_Controller.NO_DW_B_W.Exclusive_Data          157      0.00%      0.00%
system.ruby.Directory_Controller.NO_DW_B_W.All_acks_and_data_no_sharers          576      0.00%      0.00%
system.ruby.Directory_Controller.NO_DR_B_W.Memory_Data          132      0.00%      0.00%
system.ruby.Directory_Controller.NO_DR_B_W.Ack          396      0.00%      0.00%
system.ruby.Directory_Controller.NO_DR_B_D.Ack          889      0.00%      0.00%
system.ruby.Directory_Controller.NO_DR_B_D.Shared_Ack            1      0.00%      0.00%
system.ruby.Directory_Controller.NO_DR_B_D.Shared_Data           15      0.00%      0.00%
system.ruby.Directory_Controller.NO_DR_B_D.Exclusive_Data          430      0.00%      0.00%
system.ruby.Directory_Controller.NO_DR_B_D.All_acks_and_shared_data           15      0.00%      0.00%
system.ruby.Directory_Controller.NO_DR_B_D.All_acks_and_data_no_sharers          430      0.00%      0.00%
system.ruby.Directory_Controller.NO_DR_B.All_acks_and_data_no_sharers          132      0.00%      0.00%
system.ruby.Directory_Controller.NO_DW_W.Memory_Ack          576      0.00%      0.00%

---------- End Simulation Statistics   ----------
