
---------- Begin Simulation Statistics ----------
sim_seconds                                  0.011878                       # Number of seconds simulated
sim_ticks                                 11878235000                       # Number of ticks simulated
final_tick                                11878235000                       # Number of ticks from beginning of simulation (restored from checkpoints and never reset)
sim_freq                                 1000000000000                       # Frequency of simulated ticks
host_inst_rate                                 194584                       # Simulator instruction rate (inst/s)
host_op_rate                                   226773                       # Simulator op (including micro ops) rate (op/s)
host_tick_rate                              460581137                       # Simulator tick rate (ticks/s)
host_mem_usage                                4510732                       # Number of bytes of host memory used
host_seconds                                    25.79                       # Real time elapsed on the host
sim_insts                                     5018261                       # Number of instructions simulated
sim_ops                                       5848386                       # Number of ops (including micro ops) simulated
system.voltage_domain.voltage                       1                       # Voltage in Volts
system.clk_domain.clock                          1000                       # Clock period in ticks
system.mem_ctrls.clk_domain.clock                2500                       # Clock period in ticks
system.mem_ctrls.bytes_read::ruby.dir_cntrl0       236672                       # Number of bytes read from this memory
system.mem_ctrls.bytes_read::total             236672                       # Number of bytes read from this memory
system.mem_ctrls.bytes_written::ruby.dir_cntrl0        73728                       # Number of bytes written to this memory
system.mem_ctrls.bytes_written::total           73728                       # Number of bytes written to this memory
system.mem_ctrls.num_reads::ruby.dir_cntrl0         1849                       # Number of read requests responded to by this memory
system.mem_ctrls.num_reads::total                1849                       # Number of read requests responded to by this memory
system.mem_ctrls.num_writes::ruby.dir_cntrl0          576                       # Number of write requests responded to by this memory
system.mem_ctrls.num_writes::total                576                       # Number of write requests responded to by this memory
system.mem_ctrls.bw_read::ruby.dir_cntrl0     19924846                       # Total read bandwidth from this memory (bytes/s)
system.mem_ctrls.bw_read::total              19924846                       # Total read bandwidth from this memory (bytes/s)
system.mem_ctrls.bw_write::ruby.dir_cntrl0      6206983                       # Write bandwidth from this memory (bytes/s)
system.mem_ctrls.bw_write::total              6206983                       # Write bandwidth from this memory (bytes/s)
system.mem_ctrls.bw_total::ruby.dir_cntrl0     26131829                       # Total bandwidth to/from this memory (bytes/s)
system.mem_ctrls.bw_total::total             26131829                       # Total bandwidth to/from this memory (bytes/s)
system.mem_ctrls.memReq                          2425                       # Total number of memory requests
system.mem_ctrls.memRead                         1849                       # Number of memory reads
system.mem_ctrls.memWrite                         576                       # Number of memory writes
system.mem_ctrls.memRefresh                      8021                       # Number of memory refreshes
system.mem_ctrls.memWaitCycles                  39976                       # Delay stalled at the head of the bank queue
system.mem_ctrls.memInputQ                      15004                       # Delay in the input queue
system.mem_ctrls.memBankQ                       29662                       # Delay behind the head of the bank queue
system.mem_ctrls.totalStalls                    84642                       # Total number of stall cycles
system.mem_ctrls.stallsPerReq               34.903918                       # Expected number of stall cycles per request
system.mem_ctrls.memBankBusy                     6897                       # memory stalls due to busy bank
system.mem_ctrls.memBusBusy                     11545                       # memory stalls due to busy bus
system.mem_ctrls.memReadWriteBusy                 358                       # memory stalls due to read write turnaround
system.mem_ctrls.memDataBusBusy                  2374                       # memory stalls due to read read turnaround
system.mem_ctrls.memArbWait                      8534                       # memory stalls due to arbitration
system.mem_ctrls.memNotOld                      10268                       # memory stalls due to anti starvation
system.mem_ctrls.memBankCount            |          77      3.18%      3.18% |          63      2.60%      5.77% |          69      2.85%      8.62% |          71      2.93%     11.55% |          73      3.01%     14.56% |          72      2.97%     17.53% |          73      3.01%     20.54% |          78      3.22%     23.75% |          77      3.18%     26.93% |          89      3.67%     30.60% |          86      3.55%     34.14% |          89      3.67%     37.81% |          80      3.30%     41.11% |          94      3.88%     44.99% |          82      3.38%     48.37% |          77      3.18%     51.55% |          73      3.01%     54.56% |          74      3.05%     57.61% |          73      3.01%     60.62% |          74      3.05%     63.67% |          72      2.97%     66.64% |          72      2.97%     69.61% |          72      2.97%     72.58% |          69      2.85%     75.42% |          69      2.85%     78.27% |          71      2.93%     81.20% |          74      3.05%     84.25% |          77      3.18%     87.42% |          82      3.38%     90.80% |          79      3.26%     94.06% |          74      3.05%     97.11% |          70      2.89%    100.00% # Number of accesses per bank
system.mem_ctrls.memBankCount::total             2425                       # Number of accesses per bank
system.ruby_clk_domain.clock                      500                       # Clock period in ticks
system.ruby.phys_mem.bytes_read::cpu.inst     23038860                       # Number of bytes read from this memory
system.ruby.phys_mem.bytes_read::cpu.data      4857863                       # Number of bytes read from this memory
system.ruby.phys_mem.bytes_read::gpu.ce         73052                       # Number of bytes read from this memory
system.ruby.phys_mem.bytes_read::gpu.shader_cores0.data        35072                       # Number of bytes read from this memory
system.ruby.phys_mem.bytes_read::gpu.shader_cores0.inst          312                       # Number of bytes read from this memory
system.ruby.phys_mem.bytes_read::gpu.shader_cores1.data        35456                       # Number of bytes read from this memory
system.ruby.phys_mem.bytes_read::gpu.shader_cores1.inst          312                       # Number of bytes read from this memory
system.ruby.phys_mem.bytes_read::gpu.shader_cores2.data        35072                       # Number of bytes read from this memory
system.ruby.phys_mem.bytes_read::gpu.shader_cores2.inst          312                       # Number of bytes read from this memory
system.ruby.phys_mem.bytes_read::gpu.shader_cores3.data        34816                       # Number of bytes read from this memory
system.ruby.phys_mem.bytes_read::gpu.shader_cores3.inst          312                       # Number of bytes read from this memory
system.ruby.phys_mem.bytes_read::total       28111439                       # Number of bytes read from this memory
system.ruby.phys_mem.bytes_inst_read::cpu.inst     23038860                       # Number of instructions bytes read from this memory
system.ruby.phys_mem.bytes_inst_read::gpu.shader_cores0.inst          312                       # Number of instructions bytes read from this memory
system.ruby.phys_mem.bytes_inst_read::gpu.shader_cores1.inst          312                       # Number of instructions bytes read from this memory
system.ruby.phys_mem.bytes_inst_read::gpu.shader_cores2.inst          312                       # Number of instructions bytes read from this memory
system.ruby.phys_mem.bytes_inst_read::gpu.shader_cores3.inst          312                       # Number of instructions bytes read from this memory
system.ruby.phys_mem.bytes_inst_read::total     23040108                       # Number of instructions bytes read from this memory
system.ruby.phys_mem.bytes_written::cpu.data      3503551                       # Number of bytes written to this memory
system.ruby.phys_mem.bytes_written::gpu.ce        73052                       # Number of bytes written to this memory
system.ruby.phys_mem.bytes_written::gpu.shader_cores0.data         8448                       # Number of bytes written to this memory
system.ruby.phys_mem.bytes_written::gpu.shader_cores1.data         8576                       # Number of bytes written to this memory
system.ruby.phys_mem.bytes_written::gpu.shader_cores2.data         8448                       # Number of bytes written to this memory
system.ruby.phys_mem.bytes_written::gpu.shader_cores3.data         8448                       # Number of bytes written to this memory
system.ruby.phys_mem.bytes_written::total      3610523                       # Number of bytes written to this memory
system.ruby.phys_mem.num_reads::cpu.inst      5759715                       # Number of read requests responded to by this memory
system.ruby.phys_mem.num_reads::cpu.data      1051300                       # Number of read requests responded to by this memory
system.ruby.phys_mem.num_reads::gpu.ce            577                       # Number of read requests responded to by this memory
system.ruby.phys_mem.num_reads::gpu.shader_cores0.data          428                       # Number of read requests responded to by this memory
system.ruby.phys_mem.num_reads::gpu.shader_cores0.inst           13                       # Number of read requests responded to by this memory
system.ruby.phys_mem.num_reads::gpu.shader_cores1.data          421                       # Number of read requests responded to by this memory
system.ruby.phys_mem.num_reads::gpu.shader_cores1.inst           13                       # Number of read requests responded to by this memory
system.ruby.phys_mem.num_reads::gpu.shader_cores2.data          428                       # Number of read requests responded to by this memory
system.ruby.phys_mem.num_reads::gpu.shader_cores2.inst           13                       # Number of read requests responded to by this memory
system.ruby.phys_mem.num_reads::gpu.shader_cores3.data          416                       # Number of read requests responded to by this memory
system.ruby.phys_mem.num_reads::gpu.shader_cores3.inst           13                       # Number of read requests responded to by this memory
system.ruby.phys_mem.num_reads::total         6813337                       # Number of read requests responded to by this memory
system.ruby.phys_mem.num_writes::cpu.data       907772                       # Number of write requests responded to by this memory
system.ruby.phys_mem.num_writes::gpu.ce           576                       # Number of write requests responded to by this memory
system.ruby.phys_mem.num_writes::gpu.shader_cores0.data          216                       # Number of write requests responded to by this memory
system.ruby.phys_mem.num_writes::gpu.shader_cores1.data          226                       # Number of write requests responded to by this memory
system.ruby.phys_mem.num_writes::gpu.shader_cores2.data          216                       # Number of write requests responded to by this memory
system.ruby.phys_mem.num_writes::gpu.shader_cores3.data          224                       # Number of write requests responded to by this memory
system.ruby.phys_mem.num_writes::total         909230                       # Number of write requests responded to by this memory
system.ruby.phys_mem.bw_read::cpu.inst     1939586142                       # Total read bandwidth from this memory (bytes/s)
system.ruby.phys_mem.bw_read::cpu.data      408971787                       # Total read bandwidth from this memory (bytes/s)
system.ruby.phys_mem.bw_read::gpu.ce          6150072                       # Total read bandwidth from this memory (bytes/s)
system.ruby.phys_mem.bw_read::gpu.shader_cores0.data      2952627                       # Total read bandwidth from this memory (bytes/s)
system.ruby.phys_mem.bw_read::gpu.shader_cores0.inst        26267                       # Total read bandwidth from this memory (bytes/s)
system.ruby.phys_mem.bw_read::gpu.shader_cores1.data      2984955                       # Total read bandwidth from this memory (bytes/s)
system.ruby.phys_mem.bw_read::gpu.shader_cores1.inst        26267                       # Total read bandwidth from this memory (bytes/s)
system.ruby.phys_mem.bw_read::gpu.shader_cores2.data      2952627                       # Total read bandwidth from this memory (bytes/s)
system.ruby.phys_mem.bw_read::gpu.shader_cores2.inst        26267                       # Total read bandwidth from this memory (bytes/s)
system.ruby.phys_mem.bw_read::gpu.shader_cores3.data      2931075                       # Total read bandwidth from this memory (bytes/s)
system.ruby.phys_mem.bw_read::gpu.shader_cores3.inst        26267                       # Total read bandwidth from this memory (bytes/s)
system.ruby.phys_mem.bw_read::total        2366634353                       # Total read bandwidth from this memory (bytes/s)
system.ruby.phys_mem.bw_inst_read::cpu.inst   1939586142                       # Instruction read bandwidth from this memory (bytes/s)
system.ruby.phys_mem.bw_inst_read::gpu.shader_cores0.inst        26267                       # Instruction read bandwidth from this memory (bytes/s)
system.ruby.phys_mem.bw_inst_read::gpu.shader_cores1.inst        26267                       # Instruction read bandwidth from this memory (bytes/s)
system.ruby.phys_mem.bw_inst_read::gpu.shader_cores2.inst        26267                       # Instruction read bandwidth from this memory (bytes/s)
system.ruby.phys_mem.bw_inst_read::gpu.shader_cores3.inst        26267                       # Instruction read bandwidth from this memory (bytes/s)
system.ruby.phys_mem.bw_inst_read::total   1939691208                       # Instruction read bandwidth from this memory (bytes/s)
system.ruby.phys_mem.bw_write::cpu.data     294955522                       # Write bandwidth from this memory (bytes/s)
system.ruby.phys_mem.bw_write::gpu.ce         6150072                       # Write bandwidth from this memory (bytes/s)
system.ruby.phys_mem.bw_write::gpu.shader_cores0.data       711217                       # Write bandwidth from this memory (bytes/s)
system.ruby.phys_mem.bw_write::gpu.shader_cores1.data       721993                       # Write bandwidth from this memory (bytes/s)
system.ruby.phys_mem.bw_write::gpu.shader_cores2.data       711217                       # Write bandwidth from this memory (bytes/s)
system.ruby.phys_mem.bw_write::gpu.shader_cores3.data       711217                       # Write bandwidth from this memory (bytes/s)
system.ruby.phys_mem.bw_write::total        303961237                       # Write bandwidth from this memory (bytes/s)
system.ruby.phys_mem.bw_total::cpu.inst    1939586142                       # Total bandwidth to/from this memory (bytes/s)
system.ruby.phys_mem.bw_total::cpu.data     703927309                       # Total bandwidth to/from this memory (bytes/s)
system.ruby.phys_mem.bw_total::gpu.ce        12300144                       # Total bandwidth to/from this memory (bytes/s)
system.ruby.phys_mem.bw_total::gpu.shader_cores0.data      3663844                       # Total bandwidth to/from this memory (bytes/s)
system.ruby.phys_mem.bw_total::gpu.shader_cores0.inst        26267                       # Total bandwidth to/from this memory (bytes/s)
system.ruby.phys_mem.bw_total::gpu.shader_cores1.data      3706948                       # Total bandwidth to/from this memory (bytes/s)
system.ruby.phys_mem.bw_total::gpu.shader_cores1.inst        26267                       # Total bandwidth to/from this memory (bytes/s)
system.ruby.phys_mem.bw_total::gpu.shader_cores2.data      3663844                       # Total bandwidth to/from this memory (bytes/s)
system.ruby.phys_mem.bw_total::gpu.shader_cores2.inst        26267                       # Total bandwidth to/from this memory (bytes/s)
system.ruby.phys_mem.bw_total::gpu.shader_cores3.data      3642292                       # Total bandwidth to/from this memory (bytes/s)
system.ruby.phys_mem.bw_total::gpu.shader_cores3.inst        26267                       # Total bandwidth to/from this memory (bytes/s)
system.ruby.phys_mem.bw_total::total       2670595589                       # Total bandwidth to/from this memory (bytes/s)
system.cpu_voltage_domain.voltage                   1                       # Voltage in Volts
system.cpu_clk_domain.clock                       500                       # Clock period in ticks
system.cpu.dstage2_mmu.stage2_tlb.walker.walks            0                       # Table walker walks requested
system.cpu.dstage2_mmu.stage2_tlb.walker.walkRequestOrigin_Requested::Data            0                       # Table walker requests started/completed, data/inst
system.cpu.dstage2_mmu.stage2_tlb.walker.walkRequestOrigin_Requested::Inst            0                       # Table walker requests started/completed, data/inst
system.cpu.dstage2_mmu.stage2_tlb.walker.walkRequestOrigin_Requested::total            0                       # Table walker requests started/completed, data/inst
system.cpu.dstage2_mmu.stage2_tlb.walker.walkRequestOrigin_Completed::Data            0                       # Table walker requests started/completed, data/inst
system.cpu.dstage2_mmu.stage2_tlb.walker.walkRequestOrigin_Completed::Inst            0                       # Table walker requests started/completed, data/inst
system.cpu.dstage2_mmu.stage2_tlb.walker.walkRequestOrigin_Completed::total            0                       # Table walker requests started/completed, data/inst
system.cpu.dstage2_mmu.stage2_tlb.walker.walkRequestOrigin::total            0                       # Table walker requests started/completed, data/inst
system.cpu.dstage2_mmu.stage2_tlb.inst_hits            0                       # ITB inst hits
system.cpu.dstage2_mmu.stage2_tlb.inst_misses            0                       # ITB inst misses
system.cpu.dstage2_mmu.stage2_tlb.read_hits            0                       # DTB read hits
system.cpu.dstage2_mmu.stage2_tlb.read_misses            0                       # DTB read misses
system.cpu.dstage2_mmu.stage2_tlb.write_hits            0                       # DTB write hits
system.cpu.dstage2_mmu.stage2_tlb.write_misses            0                       # DTB write misses
system.cpu.dstage2_mmu.stage2_tlb.flush_tlb            0                       # Number of times complete TLB was flushed
system.cpu.dstage2_mmu.stage2_tlb.flush_tlb_mva            0                       # Number of times TLB was flushed by MVA
system.cpu.dstage2_mmu.stage2_tlb.flush_tlb_mva_asid            0                       # Number of times TLB was flushed by MVA & ASID
system.cpu.dstage2_mmu.stage2_tlb.flush_tlb_asid            0                       # Number of times TLB was flushed by ASID
system.cpu.dstage2_mmu.stage2_tlb.flush_entries            0                       # Number of entries that have been flushed from TLB
system.cpu.dstage2_mmu.stage2_tlb.align_faults            0                       # Number of TLB faults due to alignment restrictions
system.cpu.dstage2_mmu.stage2_tlb.prefetch_faults            0                       # Number of TLB faults due to prefetch
system.cpu.dstage2_mmu.stage2_tlb.domain_faults            0                       # Number of TLB faults due to domain restrictions
system.cpu.dstage2_mmu.stage2_tlb.perms_faults            0                       # Number of TLB faults due to permissions restrictions
system.cpu.dstage2_mmu.stage2_tlb.read_accesses            0                       # DTB read accesses
system.cpu.dstage2_mmu.stage2_tlb.write_accesses            0                       # DTB write accesses
system.cpu.dstage2_mmu.stage2_tlb.inst_accesses            0                       # ITB inst accesses
system.cpu.dstage2_mmu.stage2_tlb.hits              0                       # DTB hits
system.cpu.dstage2_mmu.stage2_tlb.misses            0                       # DTB misses
system.cpu.dstage2_mmu.stage2_tlb.accesses            0                       # DTB accesses
system.cpu.dtb.walker.walks                         0                       # Table walker walks requested
system.cpu.dtb.walker.walkRequestOrigin_Requested::Data            0                       # Table walker requests started/completed, data/inst
system.cpu.dtb.walker.walkRequestOrigin_Requested::Inst            0                       # Table walker requests started/completed, data/inst
system.cpu.dtb.walker.walkRequestOrigin_Requested::total            0                       # Table walker requests started/completed, data/inst
system.cpu.dtb.walker.walkRequestOrigin_Completed::Data            0                       # Table walker requests started/completed, data/inst
system.cpu.dtb.walker.walkRequestOrigin_Completed::Inst            0                       # Table walker requests started/completed, data/inst
system.cpu.dtb.walker.walkRequestOrigin_Completed::total            0                       # Table walker requests started/completed, data/inst
system.cpu.dtb.walker.walkRequestOrigin::total            0                       # Table walker requests started/completed, data/inst
system.cpu.dtb.inst_hits                            0                       # ITB inst hits
system.cpu.dtb.inst_misses                          0                       # ITB inst misses
system.cpu.dtb.read_hits                            0                       # DTB read hits
system.cpu.dtb.read_misses                          0                       # DTB read misses
system.cpu.dtb.write_hits                           0                       # DTB write hits
system.cpu.dtb.write_misses                         0                       # DTB write misses
system.cpu.dtb.flush_tlb                            0                       # Number of times complete TLB was flushed
system.cpu.dtb.flush_tlb_mva                        0                       # Number of times TLB was flushed by MVA
system.cpu.dtb.flush_tlb_mva_asid                   0                       # Number of times TLB was flushed by MVA & ASID
system.cpu.dtb.flush_tlb_asid                       0                       # Number of times TLB was flushed by ASID
system.cpu.dtb.flush_entries                        0                       # Number of entries that have been flushed from TLB
system.cpu.dtb.align_faults                         0                       # Number of TLB faults due to alignment restrictions
system.cpu.dtb.prefetch_faults                      0                       # Number of TLB faults due to prefetch
system.cpu.dtb.domain_faults                        0                       # Number of TLB faults due to domain restrictions
system.cpu.dtb.perms_faults                         0                       # Number of TLB faults due to permissions restrictions
system.cpu.dtb.read_accesses                        0                       # DTB read accesses
system.cpu.dtb.write_accesses                       0                       # DTB write accesses
system.cpu.dtb.inst_accesses                        0                       # ITB inst accesses
system.cpu.dtb.hits                                 0                       # DTB hits
system.cpu.dtb.misses                               0                       # DTB misses
system.cpu.dtb.accesses                             0                       # DTB accesses
system.cpu.istage2_mmu.stage2_tlb.walker.walks            0                       # Table walker walks requested
system.cpu.istage2_mmu.stage2_tlb.walker.walkRequestOrigin_Requested::Data            0                       # Table walker requests started/completed, data/inst
system.cpu.istage2_mmu.stage2_tlb.walker.walkRequestOrigin_Requested::Inst            0                       # Table walker requests started/completed, data/inst
system.cpu.istage2_mmu.stage2_tlb.walker.walkRequestOrigin_Requested::total            0                       # Table walker requests started/completed, data/inst
system.cpu.istage2_mmu.stage2_tlb.walker.walkRequestOrigin_Completed::Data            0                       # Table walker requests started/completed, data/inst
system.cpu.istage2_mmu.stage2_tlb.walker.walkRequestOrigin_Completed::Inst            0                       # Table walker requests started/completed, data/inst
system.cpu.istage2_mmu.stage2_tlb.walker.walkRequestOrigin_Completed::total            0                       # Table walker requests started/completed, data/inst
system.cpu.istage2_mmu.stage2_tlb.walker.walkRequestOrigin::total            0                       # Table walker requests started/completed, data/inst
system.cpu.istage2_mmu.stage2_tlb.inst_hits            0                       # ITB inst hits
system.cpu.istage2_mmu.stage2_tlb.inst_misses            0                       # ITB inst misses
system.cpu.istage2_mmu.stage2_tlb.read_hits            0                       # DTB read hits
system.cpu.istage2_mmu.stage2_tlb.read_misses            0                       # DTB read misses
system.cpu.istage2_mmu.stage2_tlb.write_hits            0                       # DTB write hits
system.cpu.istage2_mmu.stage2_tlb.write_misses            0                       # DTB write misses
system.cpu.istage2_mmu.stage2_tlb.flush_tlb            0                       # Number of times complete TLB was flushed
system.cpu.istage2_mmu.stage2_tlb.flush_tlb_mva            0                       # Number of times TLB was flushed by MVA
system.cpu.istage2_mmu.stage2_tlb.flush_tlb_mva_asid            0                       # Number of times TLB was flushed by MVA & ASID
system.cpu.istage2_mmu.stage2_tlb.flush_tlb_asid            0                       # Number of times TLB was flushed by ASID
system.cpu.istage2_mmu.stage2_tlb.flush_entries            0                       # Number of entries that have been flushed from TLB
system.cpu.istage2_mmu.stage2_tlb.align_faults            0                       # Number of TLB faults due to alignment restrictions
system.cpu.istage2_mmu.stage2_tlb.prefetch_faults            0                       # Number of TLB faults due to prefetch
system.cpu.istage2_mmu.stage2_tlb.domain_faults            0                       # Number of TLB faults due to domain restrictions
system.cpu.istage2_mmu.stage2_tlb.perms_faults            0                       # Number of TLB faults due to permissions restrictions
system.cpu.istage2_mmu.stage2_tlb.read_accesses            0                       # DTB read accesses
system.cpu.istage2_mmu.stage2_tlb.write_accesses            0                       # DTB write accesses
system.cpu.istage2_mmu.stage2_tlb.inst_accesses            0                       # ITB inst accesses
system.cpu.istage2_mmu.stage2_tlb.hits              0                       # DTB hits
system.cpu.istage2_mmu.stage2_tlb.misses            0                       # DTB misses
system.cpu.istage2_mmu.stage2_tlb.accesses            0                       # DTB accesses
system.cpu.itb.walker.walks                         0                       # Table walker walks requested
system.cpu.itb.walker.walkRequestOrigin_Requested::Data            0                       # Table walker requests started/completed, data/inst
system.cpu.itb.walker.walkRequestOrigin_Requested::Inst            0                       # Table walker requests started/completed, data/inst
system.cpu.itb.walker.walkRequestOrigin_Requested::total            0                       # Table walker requests started/completed, data/inst
system.cpu.itb.walker.walkRequestOrigin_Completed::Data            0                       # Table walker requests started/completed, data/inst
system.cpu.itb.walker.walkRequestOrigin_Completed::Inst            0                       # Table walker requests started/completed, data/inst
system.cpu.itb.walker.walkRequestOrigin_Completed::total            0                       # Table walker requests started/completed, data/inst
system.cpu.itb.walker.walkRequestOrigin::total            0                       # Table walker requests started/completed, data/inst
system.cpu.itb.inst_hits                            0                       # ITB inst hits
system.cpu.itb.inst_misses                          0                       # ITB inst misses
system.cpu.itb.read_hits                            0                       # DTB read hits
system.cpu.itb.read_misses                          0                       # DTB read misses
system.cpu.itb.write_hits                           0                       # DTB write hits
system.cpu.itb.write_misses                         0                       # DTB write misses
system.cpu.itb.flush_tlb                            0                       # Number of times complete TLB was flushed
system.cpu.itb.flush_tlb_mva                        0                       # Number of times TLB was flushed by MVA
system.cpu.itb.flush_tlb_mva_asid                   0                       # Number of times TLB was flushed by MVA & ASID
system.cpu.itb.flush_tlb_asid                       0                       # Number of times TLB was flushed by ASID
system.cpu.itb.flush_entries                        0                       # Number of entries that have been flushed from TLB
system.cpu.itb.align_faults                         0                       # Number of TLB faults due to alignment restrictions
system.cpu.itb.prefetch_faults                      0                       # Number of TLB faults due to prefetch
system.cpu.itb.domain_faults                        0                       # Number of TLB faults due to domain restrictions
system.cpu.itb.perms_faults                         0                       # Number of TLB faults due to permissions restrictions
system.cpu.itb.read_accesses                        0                       # DTB read accesses
system.cpu.itb.write_accesses                       0                       # DTB write accesses
system.cpu.itb.inst_accesses                        0                       # ITB inst accesses
system.cpu.itb.hits                                 0                       # DTB hits
system.cpu.itb.misses                               0                       # DTB misses
system.cpu.itb.accesses                             0                       # DTB accesses
system.cpu.workload.num_syscalls                   46                       # Number of system calls
system.cpu.numCycles                         23756470                       # number of cpu cycles simulated
system.cpu.numWorkItemsStarted                      1                       # number of work items this cpu started
system.cpu.numWorkItemsCompleted                    1                       # number of work items this cpu completed
system.cpu.committedInsts                     5018261                       # Number of instructions committed
system.cpu.committedOps                       5848386                       # Number of ops (including micro ops) committed
system.cpu.num_int_alu_accesses               5001059                       # Number of integer alu accesses
system.cpu.num_fp_alu_accesses                  59924                       # Number of float alu accesses
system.cpu.num_func_calls                      195244                       # number of times a function call or return occured
system.cpu.num_conditional_control_insts       760805                       # number of instructions that are conditional controls
system.cpu.num_int_insts                      5001059                       # number of integer instructions
system.cpu.num_fp_insts                         59924                       # number of float instructions
system.cpu.num_int_register_reads             8778481                       # number of times the integer registers were read
system.cpu.num_int_register_writes            3379227                       # number of times the integer registers were written
system.cpu.num_fp_register_reads                67560                       # number of times the floating registers were read
system.cpu.num_fp_register_writes               47255                       # number of times the floating registers were written
system.cpu.num_cc_register_reads             20756411                       # number of times the CC registers were read
system.cpu.num_cc_register_writes             2988573                       # number of times the CC registers were written
system.cpu.num_mem_refs                       2038136                       # number of memory refs
system.cpu.num_load_insts                     1058359                       # Number of load instructions
system.cpu.num_store_insts                     979777                       # Number of store instructions
system.cpu.num_idle_cycles               59259.087995                       # Number of idle cycles
system.cpu.num_busy_cycles               23697210.912005                       # Number of busy cycles
system.cpu.not_idle_fraction                 0.997506                       # Percentage of non-idle cycles
system.cpu.idle_fraction                     0.002494                       # Percentage of idle cycles
system.cpu.Branches                           1037599                       # Number of branches fetched
system.cpu.op_class::No_OpClass                     0      0.00%      0.00% # Class of executed instruction
system.cpu.op_class::IntAlu                   3822442     64.46%     64.46% # Class of executed instruction
system.cpu.op_class::IntMult                    35530      0.60%     65.06% # Class of executed instruction
system.cpu.op_class::IntDiv                         0      0.00%     65.06% # Class of executed instruction
system.cpu.op_class::FloatAdd                       0      0.00%     65.06% # Class of executed instruction
system.cpu.op_class::FloatCmp                       0      0.00%     65.06% # Class of executed instruction
system.cpu.op_class::FloatCvt                       0      0.00%     65.06% # Class of executed instruction
system.cpu.op_class::FloatMult                      0      0.00%     65.06% # Class of executed instruction
system.cpu.op_class::FloatDiv                       0      0.00%     65.06% # Class of executed instruction
system.cpu.op_class::FloatSqrt                      0      0.00%     65.06% # Class of executed instruction
system.cpu.op_class::SimdAdd                        0      0.00%     65.06% # Class of executed instruction
system.cpu.op_class::SimdAddAcc                     0      0.00%     65.06% # Class of executed instruction
system.cpu.op_class::SimdAlu                        0      0.00%     65.06% # Class of executed instruction
system.cpu.op_class::SimdCmp                        0      0.00%     65.06% # Class of executed instruction
system.cpu.op_class::SimdCvt                        0      0.00%     65.06% # Class of executed instruction
system.cpu.op_class::SimdMisc                       0      0.00%     65.06% # Class of executed instruction
system.cpu.op_class::SimdMult                       0      0.00%     65.06% # Class of executed instruction
system.cpu.op_class::SimdMultAcc                    0      0.00%     65.06% # Class of executed instruction
system.cpu.op_class::SimdShift                      0      0.00%     65.06% # Class of executed instruction
system.cpu.op_class::SimdShiftAcc                   0      0.00%     65.06% # Class of executed instruction
system.cpu.op_class::SimdSqrt                       0      0.00%     65.06% # Class of executed instruction
system.cpu.op_class::SimdFloatAdd                 412      0.01%     65.06% # Class of executed instruction
system.cpu.op_class::SimdFloatAlu                   0      0.00%     65.06% # Class of executed instruction
system.cpu.op_class::SimdFloatCmp                  83      0.00%     65.06% # Class of executed instruction
system.cpu.op_class::SimdFloatCvt                6964      0.12%     65.18% # Class of executed instruction
system.cpu.op_class::SimdFloatDiv                  18      0.00%     65.18% # Class of executed instruction
system.cpu.op_class::SimdFloatMisc              21749      0.37%     65.55% # Class of executed instruction
system.cpu.op_class::SimdFloatMult               4747      0.08%     65.63% # Class of executed instruction
system.cpu.op_class::SimdFloatMultAcc             140      0.00%     65.63% # Class of executed instruction
system.cpu.op_class::SimdFloatSqrt                  0      0.00%     65.63% # Class of executed instruction
system.cpu.op_class::MemRead                  1058359     17.85%     83.48% # Class of executed instruction
system.cpu.op_class::MemWrite                  979777     16.52%    100.00% # Class of executed instruction
system.cpu.op_class::IprAccess                      0      0.00%    100.00% # Class of executed instruction
system.cpu.op_class::InstPrefetch                   0      0.00%    100.00% # Class of executed instruction
system.cpu.op_class::total                    5930221                       # Class of executed instruction
system.gpu.clk_domain.voltage_domain.voltage            1                       # Voltage in Volts
system.gpu.clk_domain.clock                      1429                       # Clock period in ticks
system.gpu.dram_wrapper.clk_domain.clock          541                       # Clock period in ticks
system.gpu.icnt_wrapper.clk_domain.clock         2858                       # Clock period in ticks
system.ruby.delayHist::bucket_size                  4                       # delay histogram for all message
system.ruby.delayHist::max_bucket                  39                       # delay histogram for all message
system.ruby.delayHist::samples                   1268                       # delay histogram for all message
system.ruby.delayHist::mean                  0.766562                       # delay histogram for all message
system.ruby.delayHist::stdev                 3.200101                       # delay histogram for all message
system.ruby.delayHist                    |        1177     92.82%     92.82% |          53      4.18%     97.00% |           0      0.00%     97.00% |          20      1.58%     98.58% |           3      0.24%     98.82% |          13      1.03%     99.84% |           2      0.16%    100.00% |           0      0.00%    100.00% |           0      0.00%    100.00% |           0      0.00%    100.00% # delay histogram for all message
system.ruby.delayHist::total                     1268                       # delay histogram for all message
system.ruby.outstanding_req_hist::bucket_size            8                      
system.ruby.outstanding_req_hist::max_bucket           79                      
system.ruby.outstanding_req_hist::samples      7722568                      
system.ruby.outstanding_req_hist::mean       1.013361                      
system.ruby.outstanding_req_hist::gmean      1.001633                      
system.ruby.outstanding_req_hist::stdev      0.739066                      
system.ruby.outstanding_req_hist         |     7719604     99.96%     99.96% |         453      0.01%     99.97% |         460      0.01%     99.97% |         553      0.01%     99.98% |         650      0.01%     99.99% |         198      0.00%     99.99% |          60      0.00%     99.99% |          92      0.00%     99.99% |         498      0.01%    100.00% |           0      0.00%    100.00%
system.ruby.outstanding_req_hist::total       7722568                      
system.ruby.latency_hist::bucket_size             256                      
system.ruby.latency_hist::max_bucket             2559                      
system.ruby.latency_hist::samples             7722567                      
system.ruby.latency_hist::mean               2.228995                      
system.ruby.latency_hist::gmean              2.017345                      
system.ruby.latency_hist::stdev             11.474885                      
system.ruby.latency_hist                 |     7721006     99.98%     99.98% |         715      0.01%     99.99% |         398      0.01%     99.99% |         165      0.00%    100.00% |         106      0.00%    100.00% |          91      0.00%    100.00% |          71      0.00%    100.00% |          15      0.00%    100.00% |           0      0.00%    100.00% |           0      0.00%    100.00%
system.ruby.latency_hist::total               7722567                      
system.ruby.hit_latency_hist::bucket_size          256                      
system.ruby.hit_latency_hist::max_bucket         2559                      
system.ruby.hit_latency_hist::samples         7720886                      
system.ruby.hit_latency_hist::mean           2.155840                      
system.ruby.hit_latency_hist::gmean          2.015285                      
system.ruby.hit_latency_hist::stdev          8.423558                      
system.ruby.hit_latency_hist             |     7719707     99.98%     99.98% |         647      0.01%     99.99% |         323      0.00%    100.00% |          98      0.00%    100.00% |          46      0.00%    100.00% |          36      0.00%    100.00% |          22      0.00%    100.00% |           7      0.00%    100.00% |           0      0.00%    100.00% |           0      0.00%    100.00%
system.ruby.hit_latency_hist::total           7720886                      
system.ruby.miss_latency_hist::bucket_size          256                      
system.ruby.miss_latency_hist::max_bucket         2559                      
system.ruby.miss_latency_hist::samples           1681                      
system.ruby.miss_latency_hist::mean        338.232600                      
system.ruby.miss_latency_hist::gmean       220.144358                      
system.ruby.miss_latency_hist::stdev       407.653058                      
system.ruby.miss_latency_hist            |        1299     77.28%     77.28% |          68      4.05%     81.32% |          75      4.46%     85.78% |          67      3.99%     89.77% |          60      3.57%     93.34% |          55      3.27%     96.61% |          49      2.91%     99.52% |           8      0.48%    100.00% |           0      0.00%    100.00% |           0      0.00%    100.00%
system.ruby.miss_latency_hist::total             1681                      
system.ruby.L1Cache.incomplete_times                5                      
system.ruby.GPUL2Cache.incomplete_times            89                      
system.ruby.Directory.incomplete_times            292                      
system.gpu.shader_mmu.pagewalkers00.walker.walks            0                       # Table walker walks requested
system.gpu.shader_mmu.pagewalkers00.walker.walkRequestOrigin_Requested::Data            0                       # Table walker requests started/completed, data/inst
system.gpu.shader_mmu.pagewalkers00.walker.walkRequestOrigin_Requested::Inst            0                       # Table walker requests started/completed, data/inst
system.gpu.shader_mmu.pagewalkers00.walker.walkRequestOrigin_Requested::total            0                       # Table walker requests started/completed, data/inst
system.gpu.shader_mmu.pagewalkers00.walker.walkRequestOrigin_Completed::Data            0                       # Table walker requests started/completed, data/inst
system.gpu.shader_mmu.pagewalkers00.walker.walkRequestOrigin_Completed::Inst            0                       # Table walker requests started/completed, data/inst
system.gpu.shader_mmu.pagewalkers00.walker.walkRequestOrigin_Completed::total            0                       # Table walker requests started/completed, data/inst
system.gpu.shader_mmu.pagewalkers00.walker.walkRequestOrigin::total            0                       # Table walker requests started/completed, data/inst
system.gpu.shader_mmu.pagewalkers00.inst_hits            0                       # ITB inst hits
system.gpu.shader_mmu.pagewalkers00.inst_misses            0                       # ITB inst misses
system.gpu.shader_mmu.pagewalkers00.read_hits            0                       # DTB read hits
system.gpu.shader_mmu.pagewalkers00.read_misses            0                       # DTB read misses
system.gpu.shader_mmu.pagewalkers00.write_hits            0                       # DTB write hits
system.gpu.shader_mmu.pagewalkers00.write_misses            0                       # DTB write misses
system.gpu.shader_mmu.pagewalkers00.flush_tlb            0                       # Number of times complete TLB was flushed
system.gpu.shader_mmu.pagewalkers00.flush_tlb_mva            0                       # Number of times TLB was flushed by MVA
system.gpu.shader_mmu.pagewalkers00.flush_tlb_mva_asid            0                       # Number of times TLB was flushed by MVA & ASID
system.gpu.shader_mmu.pagewalkers00.flush_tlb_asid            0                       # Number of times TLB was flushed by ASID
system.gpu.shader_mmu.pagewalkers00.flush_entries            0                       # Number of entries that have been flushed from TLB
system.gpu.shader_mmu.pagewalkers00.align_faults            0                       # Number of TLB faults due to alignment restrictions
system.gpu.shader_mmu.pagewalkers00.prefetch_faults            0                       # Number of TLB faults due to prefetch
system.gpu.shader_mmu.pagewalkers00.domain_faults            0                       # Number of TLB faults due to domain restrictions
system.gpu.shader_mmu.pagewalkers00.perms_faults            0                       # Number of TLB faults due to permissions restrictions
system.gpu.shader_mmu.pagewalkers00.read_accesses            0                       # DTB read accesses
system.gpu.shader_mmu.pagewalkers00.write_accesses            0                       # DTB write accesses
system.gpu.shader_mmu.pagewalkers00.inst_accesses            0                       # ITB inst accesses
system.gpu.shader_mmu.pagewalkers00.hits            0                       # DTB hits
system.gpu.shader_mmu.pagewalkers00.misses            0                       # DTB misses
system.gpu.shader_mmu.pagewalkers00.accesses            0                       # DTB accesses
system.gpu.shader_mmu.pagewalkers01.walker.walks            0                       # Table walker walks requested
system.gpu.shader_mmu.pagewalkers01.walker.walkRequestOrigin_Requested::Data            0                       # Table walker requests started/completed, data/inst
system.gpu.shader_mmu.pagewalkers01.walker.walkRequestOrigin_Requested::Inst            0                       # Table walker requests started/completed, data/inst
system.gpu.shader_mmu.pagewalkers01.walker.walkRequestOrigin_Requested::total            0                       # Table walker requests started/completed, data/inst
system.gpu.shader_mmu.pagewalkers01.walker.walkRequestOrigin_Completed::Data            0                       # Table walker requests started/completed, data/inst
system.gpu.shader_mmu.pagewalkers01.walker.walkRequestOrigin_Completed::Inst            0                       # Table walker requests started/completed, data/inst
system.gpu.shader_mmu.pagewalkers01.walker.walkRequestOrigin_Completed::total            0                       # Table walker requests started/completed, data/inst
system.gpu.shader_mmu.pagewalkers01.walker.walkRequestOrigin::total            0                       # Table walker requests started/completed, data/inst
system.gpu.shader_mmu.pagewalkers01.inst_hits            0                       # ITB inst hits
system.gpu.shader_mmu.pagewalkers01.inst_misses            0                       # ITB inst misses
system.gpu.shader_mmu.pagewalkers01.read_hits            0                       # DTB read hits
system.gpu.shader_mmu.pagewalkers01.read_misses            0                       # DTB read misses
system.gpu.shader_mmu.pagewalkers01.write_hits            0                       # DTB write hits
system.gpu.shader_mmu.pagewalkers01.write_misses            0                       # DTB write misses
system.gpu.shader_mmu.pagewalkers01.flush_tlb            0                       # Number of times complete TLB was flushed
system.gpu.shader_mmu.pagewalkers01.flush_tlb_mva            0                       # Number of times TLB was flushed by MVA
system.gpu.shader_mmu.pagewalkers01.flush_tlb_mva_asid            0                       # Number of times TLB was flushed by MVA & ASID
system.gpu.shader_mmu.pagewalkers01.flush_tlb_asid            0                       # Number of times TLB was flushed by ASID
system.gpu.shader_mmu.pagewalkers01.flush_entries            0                       # Number of entries that have been flushed from TLB
system.gpu.shader_mmu.pagewalkers01.align_faults            0                       # Number of TLB faults due to alignment restrictions
system.gpu.shader_mmu.pagewalkers01.prefetch_faults            0                       # Number of TLB faults due to prefetch
system.gpu.shader_mmu.pagewalkers01.domain_faults            0                       # Number of TLB faults due to domain restrictions
system.gpu.shader_mmu.pagewalkers01.perms_faults            0                       # Number of TLB faults due to permissions restrictions
system.gpu.shader_mmu.pagewalkers01.read_accesses            0                       # DTB read accesses
system.gpu.shader_mmu.pagewalkers01.write_accesses            0                       # DTB write accesses
system.gpu.shader_mmu.pagewalkers01.inst_accesses            0                       # ITB inst accesses
system.gpu.shader_mmu.pagewalkers01.hits            0                       # DTB hits
system.gpu.shader_mmu.pagewalkers01.misses            0                       # DTB misses
system.gpu.shader_mmu.pagewalkers01.accesses            0                       # DTB accesses
system.gpu.shader_mmu.pagewalkers02.walker.walks            0                       # Table walker walks requested
system.gpu.shader_mmu.pagewalkers02.walker.walkRequestOrigin_Requested::Data            0                       # Table walker requests started/completed, data/inst
system.gpu.shader_mmu.pagewalkers02.walker.walkRequestOrigin_Requested::Inst            0                       # Table walker requests started/completed, data/inst
system.gpu.shader_mmu.pagewalkers02.walker.walkRequestOrigin_Requested::total            0                       # Table walker requests started/completed, data/inst
system.gpu.shader_mmu.pagewalkers02.walker.walkRequestOrigin_Completed::Data            0                       # Table walker requests started/completed, data/inst
system.gpu.shader_mmu.pagewalkers02.walker.walkRequestOrigin_Completed::Inst            0                       # Table walker requests started/completed, data/inst
system.gpu.shader_mmu.pagewalkers02.walker.walkRequestOrigin_Completed::total            0                       # Table walker requests started/completed, data/inst
system.gpu.shader_mmu.pagewalkers02.walker.walkRequestOrigin::total            0                       # Table walker requests started/completed, data/inst
system.gpu.shader_mmu.pagewalkers02.inst_hits            0                       # ITB inst hits
system.gpu.shader_mmu.pagewalkers02.inst_misses            0                       # ITB inst misses
system.gpu.shader_mmu.pagewalkers02.read_hits            0                       # DTB read hits
system.gpu.shader_mmu.pagewalkers02.read_misses            0                       # DTB read misses
system.gpu.shader_mmu.pagewalkers02.write_hits            0                       # DTB write hits
system.gpu.shader_mmu.pagewalkers02.write_misses            0                       # DTB write misses
system.gpu.shader_mmu.pagewalkers02.flush_tlb            0                       # Number of times complete TLB was flushed
system.gpu.shader_mmu.pagewalkers02.flush_tlb_mva            0                       # Number of times TLB was flushed by MVA
system.gpu.shader_mmu.pagewalkers02.flush_tlb_mva_asid            0                       # Number of times TLB was flushed by MVA & ASID
system.gpu.shader_mmu.pagewalkers02.flush_tlb_asid            0                       # Number of times TLB was flushed by ASID
system.gpu.shader_mmu.pagewalkers02.flush_entries            0                       # Number of entries that have been flushed from TLB
system.gpu.shader_mmu.pagewalkers02.align_faults            0                       # Number of TLB faults due to alignment restrictions
system.gpu.shader_mmu.pagewalkers02.prefetch_faults            0                       # Number of TLB faults due to prefetch
system.gpu.shader_mmu.pagewalkers02.domain_faults            0                       # Number of TLB faults due to domain restrictions
system.gpu.shader_mmu.pagewalkers02.perms_faults            0                       # Number of TLB faults due to permissions restrictions
system.gpu.shader_mmu.pagewalkers02.read_accesses            0                       # DTB read accesses
system.gpu.shader_mmu.pagewalkers02.write_accesses            0                       # DTB write accesses
system.gpu.shader_mmu.pagewalkers02.inst_accesses            0                       # ITB inst accesses
system.gpu.shader_mmu.pagewalkers02.hits            0                       # DTB hits
system.gpu.shader_mmu.pagewalkers02.misses            0                       # DTB misses
system.gpu.shader_mmu.pagewalkers02.accesses            0                       # DTB accesses
system.gpu.shader_mmu.pagewalkers03.walker.walks            0                       # Table walker walks requested
system.gpu.shader_mmu.pagewalkers03.walker.walkRequestOrigin_Requested::Data            0                       # Table walker requests started/completed, data/inst
system.gpu.shader_mmu.pagewalkers03.walker.walkRequestOrigin_Requested::Inst            0                       # Table walker requests started/completed, data/inst
system.gpu.shader_mmu.pagewalkers03.walker.walkRequestOrigin_Requested::total            0                       # Table walker requests started/completed, data/inst
system.gpu.shader_mmu.pagewalkers03.walker.walkRequestOrigin_Completed::Data            0                       # Table walker requests started/completed, data/inst
system.gpu.shader_mmu.pagewalkers03.walker.walkRequestOrigin_Completed::Inst            0                       # Table walker requests started/completed, data/inst
system.gpu.shader_mmu.pagewalkers03.walker.walkRequestOrigin_Completed::total            0                       # Table walker requests started/completed, data/inst
system.gpu.shader_mmu.pagewalkers03.walker.walkRequestOrigin::total            0                       # Table walker requests started/completed, data/inst
system.gpu.shader_mmu.pagewalkers03.inst_hits            0                       # ITB inst hits
system.gpu.shader_mmu.pagewalkers03.inst_misses            0                       # ITB inst misses
system.gpu.shader_mmu.pagewalkers03.read_hits            0                       # DTB read hits
system.gpu.shader_mmu.pagewalkers03.read_misses            0                       # DTB read misses
system.gpu.shader_mmu.pagewalkers03.write_hits            0                       # DTB write hits
system.gpu.shader_mmu.pagewalkers03.write_misses            0                       # DTB write misses
system.gpu.shader_mmu.pagewalkers03.flush_tlb            0                       # Number of times complete TLB was flushed
system.gpu.shader_mmu.pagewalkers03.flush_tlb_mva            0                       # Number of times TLB was flushed by MVA
system.gpu.shader_mmu.pagewalkers03.flush_tlb_mva_asid            0                       # Number of times TLB was flushed by MVA & ASID
system.gpu.shader_mmu.pagewalkers03.flush_tlb_asid            0                       # Number of times TLB was flushed by ASID
system.gpu.shader_mmu.pagewalkers03.flush_entries            0                       # Number of entries that have been flushed from TLB
system.gpu.shader_mmu.pagewalkers03.align_faults            0                       # Number of TLB faults due to alignment restrictions
system.gpu.shader_mmu.pagewalkers03.prefetch_faults            0                       # Number of TLB faults due to prefetch
system.gpu.shader_mmu.pagewalkers03.domain_faults            0                       # Number of TLB faults due to domain restrictions
system.gpu.shader_mmu.pagewalkers03.perms_faults            0                       # Number of TLB faults due to permissions restrictions
system.gpu.shader_mmu.pagewalkers03.read_accesses            0                       # DTB read accesses
system.gpu.shader_mmu.pagewalkers03.write_accesses            0                       # DTB write accesses
system.gpu.shader_mmu.pagewalkers03.inst_accesses            0                       # ITB inst accesses
system.gpu.shader_mmu.pagewalkers03.hits            0                       # DTB hits
system.gpu.shader_mmu.pagewalkers03.misses            0                       # DTB misses
system.gpu.shader_mmu.pagewalkers03.accesses            0                       # DTB accesses
system.gpu.shader_mmu.pagewalkers04.walker.walks            0                       # Table walker walks requested
system.gpu.shader_mmu.pagewalkers04.walker.walkRequestOrigin_Requested::Data            0                       # Table walker requests started/completed, data/inst
system.gpu.shader_mmu.pagewalkers04.walker.walkRequestOrigin_Requested::Inst            0                       # Table walker requests started/completed, data/inst
system.gpu.shader_mmu.pagewalkers04.walker.walkRequestOrigin_Requested::total            0                       # Table walker requests started/completed, data/inst
system.gpu.shader_mmu.pagewalkers04.walker.walkRequestOrigin_Completed::Data            0                       # Table walker requests started/completed, data/inst
system.gpu.shader_mmu.pagewalkers04.walker.walkRequestOrigin_Completed::Inst            0                       # Table walker requests started/completed, data/inst
system.gpu.shader_mmu.pagewalkers04.walker.walkRequestOrigin_Completed::total            0                       # Table walker requests started/completed, data/inst
system.gpu.shader_mmu.pagewalkers04.walker.walkRequestOrigin::total            0                       # Table walker requests started/completed, data/inst
system.gpu.shader_mmu.pagewalkers04.inst_hits            0                       # ITB inst hits
system.gpu.shader_mmu.pagewalkers04.inst_misses            0                       # ITB inst misses
system.gpu.shader_mmu.pagewalkers04.read_hits            0                       # DTB read hits
system.gpu.shader_mmu.pagewalkers04.read_misses            0                       # DTB read misses
system.gpu.shader_mmu.pagewalkers04.write_hits            0                       # DTB write hits
system.gpu.shader_mmu.pagewalkers04.write_misses            0                       # DTB write misses
system.gpu.shader_mmu.pagewalkers04.flush_tlb            0                       # Number of times complete TLB was flushed
system.gpu.shader_mmu.pagewalkers04.flush_tlb_mva            0                       # Number of times TLB was flushed by MVA
system.gpu.shader_mmu.pagewalkers04.flush_tlb_mva_asid            0                       # Number of times TLB was flushed by MVA & ASID
system.gpu.shader_mmu.pagewalkers04.flush_tlb_asid            0                       # Number of times TLB was flushed by ASID
system.gpu.shader_mmu.pagewalkers04.flush_entries            0                       # Number of entries that have been flushed from TLB
system.gpu.shader_mmu.pagewalkers04.align_faults            0                       # Number of TLB faults due to alignment restrictions
system.gpu.shader_mmu.pagewalkers04.prefetch_faults            0                       # Number of TLB faults due to prefetch
system.gpu.shader_mmu.pagewalkers04.domain_faults            0                       # Number of TLB faults due to domain restrictions
system.gpu.shader_mmu.pagewalkers04.perms_faults            0                       # Number of TLB faults due to permissions restrictions
system.gpu.shader_mmu.pagewalkers04.read_accesses            0                       # DTB read accesses
system.gpu.shader_mmu.pagewalkers04.write_accesses            0                       # DTB write accesses
system.gpu.shader_mmu.pagewalkers04.inst_accesses            0                       # ITB inst accesses
system.gpu.shader_mmu.pagewalkers04.hits            0                       # DTB hits
system.gpu.shader_mmu.pagewalkers04.misses            0                       # DTB misses
system.gpu.shader_mmu.pagewalkers04.accesses            0                       # DTB accesses
system.gpu.shader_mmu.pagewalkers05.walker.walks            0                       # Table walker walks requested
system.gpu.shader_mmu.pagewalkers05.walker.walkRequestOrigin_Requested::Data            0                       # Table walker requests started/completed, data/inst
system.gpu.shader_mmu.pagewalkers05.walker.walkRequestOrigin_Requested::Inst            0                       # Table walker requests started/completed, data/inst
system.gpu.shader_mmu.pagewalkers05.walker.walkRequestOrigin_Requested::total            0                       # Table walker requests started/completed, data/inst
system.gpu.shader_mmu.pagewalkers05.walker.walkRequestOrigin_Completed::Data            0                       # Table walker requests started/completed, data/inst
system.gpu.shader_mmu.pagewalkers05.walker.walkRequestOrigin_Completed::Inst            0                       # Table walker requests started/completed, data/inst
system.gpu.shader_mmu.pagewalkers05.walker.walkRequestOrigin_Completed::total            0                       # Table walker requests started/completed, data/inst
system.gpu.shader_mmu.pagewalkers05.walker.walkRequestOrigin::total            0                       # Table walker requests started/completed, data/inst
system.gpu.shader_mmu.pagewalkers05.inst_hits            0                       # ITB inst hits
system.gpu.shader_mmu.pagewalkers05.inst_misses            0                       # ITB inst misses
system.gpu.shader_mmu.pagewalkers05.read_hits            0                       # DTB read hits
system.gpu.shader_mmu.pagewalkers05.read_misses            0                       # DTB read misses
system.gpu.shader_mmu.pagewalkers05.write_hits            0                       # DTB write hits
system.gpu.shader_mmu.pagewalkers05.write_misses            0                       # DTB write misses
system.gpu.shader_mmu.pagewalkers05.flush_tlb            0                       # Number of times complete TLB was flushed
system.gpu.shader_mmu.pagewalkers05.flush_tlb_mva            0                       # Number of times TLB was flushed by MVA
system.gpu.shader_mmu.pagewalkers05.flush_tlb_mva_asid            0                       # Number of times TLB was flushed by MVA & ASID
system.gpu.shader_mmu.pagewalkers05.flush_tlb_asid            0                       # Number of times TLB was flushed by ASID
system.gpu.shader_mmu.pagewalkers05.flush_entries            0                       # Number of entries that have been flushed from TLB
system.gpu.shader_mmu.pagewalkers05.align_faults            0                       # Number of TLB faults due to alignment restrictions
system.gpu.shader_mmu.pagewalkers05.prefetch_faults            0                       # Number of TLB faults due to prefetch
system.gpu.shader_mmu.pagewalkers05.domain_faults            0                       # Number of TLB faults due to domain restrictions
system.gpu.shader_mmu.pagewalkers05.perms_faults            0                       # Number of TLB faults due to permissions restrictions
system.gpu.shader_mmu.pagewalkers05.read_accesses            0                       # DTB read accesses
system.gpu.shader_mmu.pagewalkers05.write_accesses            0                       # DTB write accesses
system.gpu.shader_mmu.pagewalkers05.inst_accesses            0                       # ITB inst accesses
system.gpu.shader_mmu.pagewalkers05.hits            0                       # DTB hits
system.gpu.shader_mmu.pagewalkers05.misses            0                       # DTB misses
system.gpu.shader_mmu.pagewalkers05.accesses            0                       # DTB accesses
system.gpu.shader_mmu.pagewalkers06.walker.walks            0                       # Table walker walks requested
system.gpu.shader_mmu.pagewalkers06.walker.walkRequestOrigin_Requested::Data            0                       # Table walker requests started/completed, data/inst
system.gpu.shader_mmu.pagewalkers06.walker.walkRequestOrigin_Requested::Inst            0                       # Table walker requests started/completed, data/inst
system.gpu.shader_mmu.pagewalkers06.walker.walkRequestOrigin_Requested::total            0                       # Table walker requests started/completed, data/inst
system.gpu.shader_mmu.pagewalkers06.walker.walkRequestOrigin_Completed::Data            0                       # Table walker requests started/completed, data/inst
system.gpu.shader_mmu.pagewalkers06.walker.walkRequestOrigin_Completed::Inst            0                       # Table walker requests started/completed, data/inst
system.gpu.shader_mmu.pagewalkers06.walker.walkRequestOrigin_Completed::total            0                       # Table walker requests started/completed, data/inst
system.gpu.shader_mmu.pagewalkers06.walker.walkRequestOrigin::total            0                       # Table walker requests started/completed, data/inst
system.gpu.shader_mmu.pagewalkers06.inst_hits            0                       # ITB inst hits
system.gpu.shader_mmu.pagewalkers06.inst_misses            0                       # ITB inst misses
system.gpu.shader_mmu.pagewalkers06.read_hits            0                       # DTB read hits
system.gpu.shader_mmu.pagewalkers06.read_misses            0                       # DTB read misses
system.gpu.shader_mmu.pagewalkers06.write_hits            0                       # DTB write hits
system.gpu.shader_mmu.pagewalkers06.write_misses            0                       # DTB write misses
system.gpu.shader_mmu.pagewalkers06.flush_tlb            0                       # Number of times complete TLB was flushed
system.gpu.shader_mmu.pagewalkers06.flush_tlb_mva            0                       # Number of times TLB was flushed by MVA
system.gpu.shader_mmu.pagewalkers06.flush_tlb_mva_asid            0                       # Number of times TLB was flushed by MVA & ASID
system.gpu.shader_mmu.pagewalkers06.flush_tlb_asid            0                       # Number of times TLB was flushed by ASID
system.gpu.shader_mmu.pagewalkers06.flush_entries            0                       # Number of entries that have been flushed from TLB
system.gpu.shader_mmu.pagewalkers06.align_faults            0                       # Number of TLB faults due to alignment restrictions
system.gpu.shader_mmu.pagewalkers06.prefetch_faults            0                       # Number of TLB faults due to prefetch
system.gpu.shader_mmu.pagewalkers06.domain_faults            0                       # Number of TLB faults due to domain restrictions
system.gpu.shader_mmu.pagewalkers06.perms_faults            0                       # Number of TLB faults due to permissions restrictions
system.gpu.shader_mmu.pagewalkers06.read_accesses            0                       # DTB read accesses
system.gpu.shader_mmu.pagewalkers06.write_accesses            0                       # DTB write accesses
system.gpu.shader_mmu.pagewalkers06.inst_accesses            0                       # ITB inst accesses
system.gpu.shader_mmu.pagewalkers06.hits            0                       # DTB hits
system.gpu.shader_mmu.pagewalkers06.misses            0                       # DTB misses
system.gpu.shader_mmu.pagewalkers06.accesses            0                       # DTB accesses
system.gpu.shader_mmu.pagewalkers07.walker.walks            0                       # Table walker walks requested
system.gpu.shader_mmu.pagewalkers07.walker.walkRequestOrigin_Requested::Data            0                       # Table walker requests started/completed, data/inst
system.gpu.shader_mmu.pagewalkers07.walker.walkRequestOrigin_Requested::Inst            0                       # Table walker requests started/completed, data/inst
system.gpu.shader_mmu.pagewalkers07.walker.walkRequestOrigin_Requested::total            0                       # Table walker requests started/completed, data/inst
system.gpu.shader_mmu.pagewalkers07.walker.walkRequestOrigin_Completed::Data            0                       # Table walker requests started/completed, data/inst
system.gpu.shader_mmu.pagewalkers07.walker.walkRequestOrigin_Completed::Inst            0                       # Table walker requests started/completed, data/inst
system.gpu.shader_mmu.pagewalkers07.walker.walkRequestOrigin_Completed::total            0                       # Table walker requests started/completed, data/inst
system.gpu.shader_mmu.pagewalkers07.walker.walkRequestOrigin::total            0                       # Table walker requests started/completed, data/inst
system.gpu.shader_mmu.pagewalkers07.inst_hits            0                       # ITB inst hits
system.gpu.shader_mmu.pagewalkers07.inst_misses            0                       # ITB inst misses
system.gpu.shader_mmu.pagewalkers07.read_hits            0                       # DTB read hits
system.gpu.shader_mmu.pagewalkers07.read_misses            0                       # DTB read misses
system.gpu.shader_mmu.pagewalkers07.write_hits            0                       # DTB write hits
system.gpu.shader_mmu.pagewalkers07.write_misses            0                       # DTB write misses
system.gpu.shader_mmu.pagewalkers07.flush_tlb            0                       # Number of times complete TLB was flushed
system.gpu.shader_mmu.pagewalkers07.flush_tlb_mva            0                       # Number of times TLB was flushed by MVA
system.gpu.shader_mmu.pagewalkers07.flush_tlb_mva_asid            0                       # Number of times TLB was flushed by MVA & ASID
system.gpu.shader_mmu.pagewalkers07.flush_tlb_asid            0                       # Number of times TLB was flushed by ASID
system.gpu.shader_mmu.pagewalkers07.flush_entries            0                       # Number of entries that have been flushed from TLB
system.gpu.shader_mmu.pagewalkers07.align_faults            0                       # Number of TLB faults due to alignment restrictions
system.gpu.shader_mmu.pagewalkers07.prefetch_faults            0                       # Number of TLB faults due to prefetch
system.gpu.shader_mmu.pagewalkers07.domain_faults            0                       # Number of TLB faults due to domain restrictions
system.gpu.shader_mmu.pagewalkers07.perms_faults            0                       # Number of TLB faults due to permissions restrictions
system.gpu.shader_mmu.pagewalkers07.read_accesses            0                       # DTB read accesses
system.gpu.shader_mmu.pagewalkers07.write_accesses            0                       # DTB write accesses
system.gpu.shader_mmu.pagewalkers07.inst_accesses            0                       # ITB inst accesses
system.gpu.shader_mmu.pagewalkers07.hits            0                       # DTB hits
system.gpu.shader_mmu.pagewalkers07.misses            0                       # DTB misses
system.gpu.shader_mmu.pagewalkers07.accesses            0                       # DTB accesses
system.gpu.shader_mmu.pagewalkers08.walker.walks            0                       # Table walker walks requested
system.gpu.shader_mmu.pagewalkers08.walker.walkRequestOrigin_Requested::Data            0                       # Table walker requests started/completed, data/inst
system.gpu.shader_mmu.pagewalkers08.walker.walkRequestOrigin_Requested::Inst            0                       # Table walker requests started/completed, data/inst
system.gpu.shader_mmu.pagewalkers08.walker.walkRequestOrigin_Requested::total            0                       # Table walker requests started/completed, data/inst
system.gpu.shader_mmu.pagewalkers08.walker.walkRequestOrigin_Completed::Data            0                       # Table walker requests started/completed, data/inst
system.gpu.shader_mmu.pagewalkers08.walker.walkRequestOrigin_Completed::Inst            0                       # Table walker requests started/completed, data/inst
system.gpu.shader_mmu.pagewalkers08.walker.walkRequestOrigin_Completed::total            0                       # Table walker requests started/completed, data/inst
system.gpu.shader_mmu.pagewalkers08.walker.walkRequestOrigin::total            0                       # Table walker requests started/completed, data/inst
system.gpu.shader_mmu.pagewalkers08.inst_hits            0                       # ITB inst hits
system.gpu.shader_mmu.pagewalkers08.inst_misses            0                       # ITB inst misses
system.gpu.shader_mmu.pagewalkers08.read_hits            0                       # DTB read hits
system.gpu.shader_mmu.pagewalkers08.read_misses            0                       # DTB read misses
system.gpu.shader_mmu.pagewalkers08.write_hits            0                       # DTB write hits
system.gpu.shader_mmu.pagewalkers08.write_misses            0                       # DTB write misses
system.gpu.shader_mmu.pagewalkers08.flush_tlb            0                       # Number of times complete TLB was flushed
system.gpu.shader_mmu.pagewalkers08.flush_tlb_mva            0                       # Number of times TLB was flushed by MVA
system.gpu.shader_mmu.pagewalkers08.flush_tlb_mva_asid            0                       # Number of times TLB was flushed by MVA & ASID
system.gpu.shader_mmu.pagewalkers08.flush_tlb_asid            0                       # Number of times TLB was flushed by ASID
system.gpu.shader_mmu.pagewalkers08.flush_entries            0                       # Number of entries that have been flushed from TLB
system.gpu.shader_mmu.pagewalkers08.align_faults            0                       # Number of TLB faults due to alignment restrictions
system.gpu.shader_mmu.pagewalkers08.prefetch_faults            0                       # Number of TLB faults due to prefetch
system.gpu.shader_mmu.pagewalkers08.domain_faults            0                       # Number of TLB faults due to domain restrictions
system.gpu.shader_mmu.pagewalkers08.perms_faults            0                       # Number of TLB faults due to permissions restrictions
system.gpu.shader_mmu.pagewalkers08.read_accesses            0                       # DTB read accesses
system.gpu.shader_mmu.pagewalkers08.write_accesses            0                       # DTB write accesses
system.gpu.shader_mmu.pagewalkers08.inst_accesses            0                       # ITB inst accesses
system.gpu.shader_mmu.pagewalkers08.hits            0                       # DTB hits
system.gpu.shader_mmu.pagewalkers08.misses            0                       # DTB misses
system.gpu.shader_mmu.pagewalkers08.accesses            0                       # DTB accesses
system.gpu.shader_mmu.pagewalkers09.walker.walks            0                       # Table walker walks requested
system.gpu.shader_mmu.pagewalkers09.walker.walkRequestOrigin_Requested::Data            0                       # Table walker requests started/completed, data/inst
system.gpu.shader_mmu.pagewalkers09.walker.walkRequestOrigin_Requested::Inst            0                       # Table walker requests started/completed, data/inst
system.gpu.shader_mmu.pagewalkers09.walker.walkRequestOrigin_Requested::total            0                       # Table walker requests started/completed, data/inst
system.gpu.shader_mmu.pagewalkers09.walker.walkRequestOrigin_Completed::Data            0                       # Table walker requests started/completed, data/inst
system.gpu.shader_mmu.pagewalkers09.walker.walkRequestOrigin_Completed::Inst            0                       # Table walker requests started/completed, data/inst
system.gpu.shader_mmu.pagewalkers09.walker.walkRequestOrigin_Completed::total            0                       # Table walker requests started/completed, data/inst
system.gpu.shader_mmu.pagewalkers09.walker.walkRequestOrigin::total            0                       # Table walker requests started/completed, data/inst
system.gpu.shader_mmu.pagewalkers09.inst_hits            0                       # ITB inst hits
system.gpu.shader_mmu.pagewalkers09.inst_misses            0                       # ITB inst misses
system.gpu.shader_mmu.pagewalkers09.read_hits            0                       # DTB read hits
system.gpu.shader_mmu.pagewalkers09.read_misses            0                       # DTB read misses
system.gpu.shader_mmu.pagewalkers09.write_hits            0                       # DTB write hits
system.gpu.shader_mmu.pagewalkers09.write_misses            0                       # DTB write misses
system.gpu.shader_mmu.pagewalkers09.flush_tlb            0                       # Number of times complete TLB was flushed
system.gpu.shader_mmu.pagewalkers09.flush_tlb_mva            0                       # Number of times TLB was flushed by MVA
system.gpu.shader_mmu.pagewalkers09.flush_tlb_mva_asid            0                       # Number of times TLB was flushed by MVA & ASID
system.gpu.shader_mmu.pagewalkers09.flush_tlb_asid            0                       # Number of times TLB was flushed by ASID
system.gpu.shader_mmu.pagewalkers09.flush_entries            0                       # Number of entries that have been flushed from TLB
system.gpu.shader_mmu.pagewalkers09.align_faults            0                       # Number of TLB faults due to alignment restrictions
system.gpu.shader_mmu.pagewalkers09.prefetch_faults            0                       # Number of TLB faults due to prefetch
system.gpu.shader_mmu.pagewalkers09.domain_faults            0                       # Number of TLB faults due to domain restrictions
system.gpu.shader_mmu.pagewalkers09.perms_faults            0                       # Number of TLB faults due to permissions restrictions
system.gpu.shader_mmu.pagewalkers09.read_accesses            0                       # DTB read accesses
system.gpu.shader_mmu.pagewalkers09.write_accesses            0                       # DTB write accesses
system.gpu.shader_mmu.pagewalkers09.inst_accesses            0                       # ITB inst accesses
system.gpu.shader_mmu.pagewalkers09.hits            0                       # DTB hits
system.gpu.shader_mmu.pagewalkers09.misses            0                       # DTB misses
[...]
system.ruby.L1Cache_Controller.L1_to_L2::total        22954                      
system.ruby.L1Cache_Controller.Trigger_L2_to_L1D |        9029    100.00%    100.00% |           0      0.00%    100.00%
system.ruby.L1Cache_Controller.Trigger_L2_to_L1D::total         9029                      
system.ruby.L1Cache_Controller.Trigger_L2_to_L1I |       13447    100.00%    100.00% |           0      0.00%    100.00%
system.ruby.L1Cache_Controller.Trigger_L2_to_L1I::total        13447                      
system.ruby.L1Cache_Controller.Complete_L2_to_L1 |       22476    100.00%    100.00% |           0      0.00%    100.00%
system.ruby.L1Cache_Controller.Complete_L2_to_L1::total        22476                      
system.ruby.L1Cache_Controller.Other_GETX |         722     33.26%     33.26% |        1449     66.74%    100.00%
system.ruby.L1Cache_Controller.Other_GETX::total         2171                      
system.ruby.L1Cache_Controller.Other_GETS |         874     37.74%     37.74% |        1442     62.26%    100.00%
system.ruby.L1Cache_Controller.Other_GETS::total         2316                      
system.ruby.L1Cache_Controller.Ack       |        2582    100.00%    100.00% |           0      0.00%    100.00%
system.ruby.L1Cache_Controller.Ack::total         2582                      
system.ruby.L1Cache_Controller.Data      |           3    100.00%    100.00% |           0      0.00%    100.00%
system.ruby.L1Cache_Controller.Data::total            3                      
system.ruby.L1Cache_Controller.Shared_Data |           2    100.00%    100.00% |           0      0.00%    100.00%
system.ruby.L1Cache_Controller.Shared_Data::total            2                      
system.ruby.L1Cache_Controller.Exclusive_Data |        1287    100.00%    100.00% |           0      0.00%    100.00%
system.ruby.L1Cache_Controller.Exclusive_Data::total         1287                      
system.ruby.L1Cache_Controller.All_acks  |           2    100.00%    100.00% |           0      0.00%    100.00%
system.ruby.L1Cache_Controller.All_acks::total            2                      
system.ruby.L1Cache_Controller.All_acks_no_sharers |        1293    100.00%    100.00% |           0      0.00%    100.00%
system.ruby.L1Cache_Controller.All_acks_no_sharers::total         1293                      
system.ruby.L1Cache_Controller.I.Load    |         184    100.00%    100.00% |           0      0.00%    100.00%
system.ruby.L1Cache_Controller.I.Load::total          184                      
system.ruby.L1Cache_Controller.I.Ifetch  |         347    100.00%    100.00% |           0      0.00%    100.00%
system.ruby.L1Cache_Controller.I.Ifetch::total          347                      
system.ruby.L1Cache_Controller.I.Store   |         722    100.00%    100.00% |           0      0.00%    100.00%
system.ruby.L1Cache_Controller.I.Store::total          722                      
system.ruby.L1Cache_Controller.I.L1_to_L2 |          78    100.00%    100.00% |           0      0.00%    100.00%
system.ruby.L1Cache_Controller.I.L1_to_L2::total           78                      
system.ruby.L1Cache_Controller.I.Trigger_L2_to_L1D |          37    100.00%    100.00% |           0      0.00%    100.00%
system.ruby.L1Cache_Controller.I.Trigger_L2_to_L1D::total           37                      
system.ruby.L1Cache_Controller.I.Other_GETX |         689     32.23%     32.23% |        1449     67.77%    100.00%
system.ruby.L1Cache_Controller.I.Other_GETX::total         2138                      
system.ruby.L1Cache_Controller.I.Other_GETS |         575     28.51%     28.51% |        1442     71.49%    100.00%
system.ruby.L1Cache_Controller.I.Other_GETS::total         2017                      
system.ruby.L1Cache_Controller.S.Load    |           1    100.00%    100.00% |           0      0.00%    100.00%
system.ruby.L1Cache_Controller.S.Load::total            1                      
system.ruby.L1Cache_Controller.S.Store   |           2    100.00%    100.00% |           0      0.00%    100.00%
system.ruby.L1Cache_Controller.S.Store::total            2                      
system.ruby.L1Cache_Controller.O.Load    |          31    100.00%    100.00% |           0      0.00%    100.00%
system.ruby.L1Cache_Controller.O.Load::total           31                      
system.ruby.L1Cache_Controller.O.Store   |           3    100.00%    100.00% |           0      0.00%    100.00%
system.ruby.L1Cache_Controller.O.Store::total            3                      
system.ruby.L1Cache_Controller.O.L1_to_L2 |           1    100.00%    100.00% |           0      0.00%    100.00%
system.ruby.L1Cache_Controller.O.L1_to_L2::total            1                      
system.ruby.L1Cache_Controller.O.Trigger_L2_to_L1D |           1    100.00%    100.00% |           0      0.00%    100.00%
system.ruby.L1Cache_Controller.O.Trigger_L2_to_L1D::total            1                      
system.ruby.L1Cache_Controller.O.Other_GETX |           5    100.00%    100.00% |           0      0.00%    100.00%
system.ruby.L1Cache_Controller.O.Other_GETX::total            5                      
system.ruby.L1Cache_Controller.O.Other_GETS |           1    100.00%    100.00% |           0      0.00%    100.00%
system.ruby.L1Cache_Controller.O.Other_GETS::total            1                      
system.ruby.L1Cache_Controller.M.Load    |       89442    100.00%    100.00% |           0      0.00%    100.00%
system.ruby.L1Cache_Controller.M.Load::total        89442                      
system.ruby.L1Cache_Controller.M.Ifetch  |     5745921    100.00%    100.00% |           0      0.00%    100.00%
system.ruby.L1Cache_Controller.M.Ifetch::total      5745921                      
system.ruby.L1Cache_Controller.M.Store   |          34    100.00%    100.00% |           0      0.00%    100.00%
system.ruby.L1Cache_Controller.M.Store::total           34                      
system.ruby.L1Cache_Controller.M.L1_to_L2 |       22357    100.00%    100.00% |           0      0.00%    100.00%
system.ruby.L1Cache_Controller.M.L1_to_L2::total        22357                      
system.ruby.L1Cache_Controller.M.Trigger_L2_to_L1D |        8665    100.00%    100.00% |           0      0.00%    100.00%
system.ruby.L1Cache_Controller.M.Trigger_L2_to_L1D::total         8665                      
system.ruby.L1Cache_Controller.M.Trigger_L2_to_L1I |       13447    100.00%    100.00% |           0      0.00%    100.00%
system.ruby.L1Cache_Controller.M.Trigger_L2_to_L1I::total        13447                      
system.ruby.L1Cache_Controller.M.Other_GETX |          12    100.00%    100.00% |           0      0.00%    100.00%
system.ruby.L1Cache_Controller.M.Other_GETX::total           12                      
system.ruby.L1Cache_Controller.M.Other_GETS |           9    100.00%    100.00% |           0      0.00%    100.00%
system.ruby.L1Cache_Controller.M.Other_GETS::total            9                      
system.ruby.L1Cache_Controller.MM.Load   |      935954    100.00%    100.00% |           0      0.00%    100.00%
system.ruby.L1Cache_Controller.MM.Load::total       935954                      
system.ruby.L1Cache_Controller.MM.Store  |      923670    100.00%    100.00% |           0      0.00%    100.00%
system.ruby.L1Cache_Controller.MM.Store::total       923670                      
system.ruby.L1Cache_Controller.MM.L1_to_L2 |         518    100.00%    100.00% |           0      0.00%    100.00%
system.ruby.L1Cache_Controller.MM.L1_to_L2::total          518                      
system.ruby.L1Cache_Controller.MM.Trigger_L2_to_L1D |         326    100.00%    100.00% |           0      0.00%    100.00%
system.ruby.L1Cache_Controller.MM.Trigger_L2_to_L1D::total          326                      
system.ruby.L1Cache_Controller.MM.Other_GETX |          16    100.00%    100.00% |           0      0.00%    100.00%
system.ruby.L1Cache_Controller.MM.Other_GETX::total           16                      
system.ruby.L1Cache_Controller.MM.Other_GETS |         289    100.00%    100.00% |           0      0.00%    100.00%
system.ruby.L1Cache_Controller.MM.Other_GETS::total          289                      
system.ruby.L1Cache_Controller.IR.Load   |          37    100.00%    100.00% |           0      0.00%    100.00%
system.ruby.L1Cache_Controller.IR.Load::total           37                      
system.ruby.L1Cache_Controller.OR.Load   |           1    100.00%    100.00% |           0      0.00%    100.00%
system.ruby.L1Cache_Controller.OR.Load::total            1                      
system.ruby.L1Cache_Controller.MR.Load   |        8665    100.00%    100.00% |           0      0.00%    100.00%
system.ruby.L1Cache_Controller.MR.Load::total         8665                      
system.ruby.L1Cache_Controller.MR.Ifetch |       13447    100.00%    100.00% |           0      0.00%    100.00%
system.ruby.L1Cache_Controller.MR.Ifetch::total        13447                      
system.ruby.L1Cache_Controller.MMR.Load  |         289    100.00%    100.00% |           0      0.00%    100.00%
system.ruby.L1Cache_Controller.MMR.Load::total          289                      
system.ruby.L1Cache_Controller.MMR.Store |          37    100.00%    100.00% |           0      0.00%    100.00%
system.ruby.L1Cache_Controller.MMR.Store::total           37                      
system.ruby.L1Cache_Controller.IM.Ack    |        1441    100.00%    100.00% |           0      0.00%    100.00%
system.ruby.L1Cache_Controller.IM.Ack::total         1441                      
system.ruby.L1Cache_Controller.IM.Data   |           1    100.00%    100.00% |           0      0.00%    100.00%
system.ruby.L1Cache_Controller.IM.Data::total            1                      
system.ruby.L1Cache_Controller.IM.Exclusive_Data |         721    100.00%    100.00% |           0      0.00%    100.00%
system.ruby.L1Cache_Controller.IM.Exclusive_Data::total          721                      
system.ruby.L1Cache_Controller.SM.Ack    |           2    100.00%    100.00% |           0      0.00%    100.00%
system.ruby.L1Cache_Controller.SM.Ack::total            2                      
system.ruby.L1Cache_Controller.SM.Data   |           2    100.00%    100.00% |           0      0.00%    100.00%
system.ruby.L1Cache_Controller.SM.Data::total            2                      
system.ruby.L1Cache_Controller.OM.Ack    |           6    100.00%    100.00% |           0      0.00%    100.00%
system.ruby.L1Cache_Controller.OM.Ack::total            6                      
system.ruby.L1Cache_Controller.OM.All_acks_no_sharers |           3    100.00%    100.00% |           0      0.00%    100.00%
system.ruby.L1Cache_Controller.OM.All_acks_no_sharers::total            3                      
system.ruby.L1Cache_Controller.ISM.All_acks_no_sharers |           3    100.00%    100.00% |           0      0.00%    100.00%
system.ruby.L1Cache_Controller.ISM.All_acks_no_sharers::total            3                      
system.ruby.L1Cache_Controller.M_W.All_acks_no_sharers |         566    100.00%    100.00% |           0      0.00%    100.00%
system.ruby.L1Cache_Controller.M_W.All_acks_no_sharers::total          566                      
system.ruby.L1Cache_Controller.MM_W.All_acks_no_sharers |         721    100.00%    100.00% |           0      0.00%    100.00%
system.ruby.L1Cache_Controller.MM_W.All_acks_no_sharers::total          721                      
system.ruby.L1Cache_Controller.IS.Ack    |        1133    100.00%    100.00% |           0      0.00%    100.00%
system.ruby.L1Cache_Controller.IS.Ack::total         1133                      
system.ruby.L1Cache_Controller.IS.Shared_Data |           2    100.00%    100.00% |           0      0.00%    100.00%
system.ruby.L1Cache_Controller.IS.Shared_Data::total            2                      
system.ruby.L1Cache_Controller.IS.Exclusive_Data |         566    100.00%    100.00% |           0      0.00%    100.00%
system.ruby.L1Cache_Controller.IS.Exclusive_Data::total          566                      
system.ruby.L1Cache_Controller.SS.All_acks |           2    100.00%    100.00% |           0      0.00%    100.00%
system.ruby.L1Cache_Controller.SS.All_acks::total            2                      
system.ruby.L1Cache_Controller.IT.Complete_L2_to_L1 |          37    100.00%    100.00% |           0      0.00%    100.00%
system.ruby.L1Cache_Controller.IT.Complete_L2_to_L1::total           37                      
system.ruby.L1Cache_Controller.OT.Complete_L2_to_L1 |           1    100.00%    100.00% |           0      0.00%    100.00%
system.ruby.L1Cache_Controller.OT.Complete_L2_to_L1::total            1                      
system.ruby.L1Cache_Controller.MT.Complete_L2_to_L1 |       22112    100.00%    100.00% |           0      0.00%    100.00%
system.ruby.L1Cache_Controller.MT.Complete_L2_to_L1::total        22112                      
system.ruby.L1Cache_Controller.MMT.Complete_L2_to_L1 |         326    100.00%    100.00% |           0      0.00%    100.00%
system.ruby.L1Cache_Controller.MMT.Complete_L2_to_L1::total          326                      
system.ruby.GPUCopyDMA_Controller.ReadRequest          577      0.00%      0.00%
system.ruby.GPUCopyDMA_Controller.WriteRequest          576      0.00%      0.00%
system.ruby.GPUCopyDMA_Controller.Data            577      0.00%      0.00%
system.ruby.GPUCopyDMA_Controller.Ack             576      0.00%      0.00%
system.ruby.GPUCopyDMA_Controller.READY.ReadRequest          577      0.00%      0.00%
system.ruby.GPUCopyDMA_Controller.READY.WriteRequest          576      0.00%      0.00%
system.ruby.GPUCopyDMA_Controller.BUSY_RD.Data          577      0.00%      0.00%
system.ruby.GPUCopyDMA_Controller.BUSY_WR.Ack          576      0.00%      0.00%
system.ruby.GPUL1Cache_Controller.Load   |         428     25.28%     25.28% |         421     24.87%     50.15% |         428     25.28%     75.43% |         416     24.57%    100.00%
system.ruby.GPUL1Cache_Controller.Load::total         1693                      
system.ruby.GPUL1Cache_Controller.Ifetch |          13     25.00%     25.00% |          13     25.00%     50.00% |          13     25.00%     75.00% |          13     25.00%    100.00%
system.ruby.GPUL1Cache_Controller.Ifetch::total           52                      
system.ruby.GPUL1Cache_Controller.Store  |         216     24.49%     24.49% |         226     25.62%     50.11% |         216     24.49%     74.60% |         224     25.40%    100.00%
system.ruby.GPUL1Cache_Controller.Store::total          882                      
system.ruby.GPUL1Cache_Controller.Data   |          94     24.35%     24.35% |         100     25.91%     50.26% |          94     24.35%     74.61% |          98     25.39%    100.00%
system.ruby.GPUL1Cache_Controller.Data::total          386                      
system.ruby.GPUL1Cache_Controller.Write_Ack |         216     24.49%     24.49% |         226     25.62%     50.11% |         216     24.49%     74.60% |         224     25.40%    100.00%
system.ruby.GPUL1Cache_Controller.Write_Ack::total          882                      
system.ruby.GPUL1Cache_Controller.I.Load |          81     24.25%     24.25% |          87     26.05%     50.30% |          81     24.25%     74.55% |          85     25.45%    100.00%
system.ruby.GPUL1Cache_Controller.I.Load::total          334                      
system.ruby.GPUL1Cache_Controller.I.Ifetch |          13     25.00%     25.00% |          13     25.00%     50.00% |          13     25.00%     75.00% |          13     25.00%    100.00%
system.ruby.GPUL1Cache_Controller.I.Ifetch::total           52                      
system.ruby.GPUL1Cache_Controller.I.Store |         144     25.00%     25.00% |         144     25.00%     50.00% |         144     25.00%     75.00% |         144     25.00%    100.00%
system.ruby.GPUL1Cache_Controller.I.Store::total          576                      
system.ruby.GPUL1Cache_Controller.V.Load |         347     25.53%     25.53% |         334     24.58%     50.11% |         347     25.53%     75.64% |         331     24.36%    100.00%
system.ruby.GPUL1Cache_Controller.V.Load::total         1359                      
system.ruby.GPUL1Cache_Controller.V.Store |          72     23.53%     23.53% |          82     26.80%     50.33% |          72     23.53%     73.86% |          80     26.14%    100.00%
system.ruby.GPUL1Cache_Controller.V.Store::total          306                      
system.ruby.GPUL1Cache_Controller.IA.Write_Ack |         216     24.49%     24.49% |         226     25.62%     50.11% |         216     24.49%     74.60% |         224     25.40%    100.00%
system.ruby.GPUL1Cache_Controller.IA.Write_Ack::total          882                      
system.ruby.GPUL1Cache_Controller.IV.Data |          94     24.35%     24.35% |         100     25.91%     50.26% |          94     24.35%     74.61% |          98     25.39%    100.00%
system.ruby.GPUL1Cache_Controller.IV.Data::total          386                      
system.ruby.GPUL2Cache_Controller.Get             469      0.00%      0.00%
system.ruby.GPUL2Cache_Controller.Store           901      0.00%      0.00%
system.ruby.GPUL2Cache_Controller.Other_GETX         1303      0.00%      0.00%
system.ruby.GPUL2Cache_Controller.Other_GETS         1145      0.00%      0.00%
system.ruby.GPUL2Cache_Controller.Ack             877      0.00%      0.00%
system.ruby.GPUL2Cache_Controller.Shared_Data            3      0.00%      0.00%
system.ruby.GPUL2Cache_Controller.Exclusive_Data          440      0.00%      0.00%
system.ruby.GPUL2Cache_Controller.All_acks            3      0.00%      0.00%
system.ruby.GPUL2Cache_Controller.All_acks_no_sharers          440      0.00%      0.00%
system.ruby.GPUL2Cache_Controller.I.Get           297      0.00%      0.00%
system.ruby.GPUL2Cache_Controller.I.Store          146      0.00%      0.00%
system.ruby.GPUL2Cache_Controller.I.Other_GETX         1160      0.00%      0.00%
system.ruby.GPUL2Cache_Controller.I.Other_GETS          990      0.00%      0.00%
system.ruby.GPUL2Cache_Controller.S.Get             6      0.00%      0.00%
system.ruby.GPUL2Cache_Controller.S.Other_GETX            2      0.00%      0.00%
system.ruby.GPUL2Cache_Controller.O.Other_GETX            3      0.00%      0.00%
system.ruby.GPUL2Cache_Controller.M.Get            81      0.00%      0.00%
system.ruby.GPUL2Cache_Controller.M.Store          136      0.00%      0.00%
system.ruby.GPUL2Cache_Controller.M.Other_GETX          136      0.00%      0.00%
system.ruby.GPUL2Cache_Controller.M.Other_GETS           10      0.00%      0.00%
system.ruby.GPUL2Cache_Controller.MM.Get            2      0.00%      0.00%
system.ruby.GPUL2Cache_Controller.MM.Store          597      0.00%      0.00%
system.ruby.GPUL2Cache_Controller.MM.Other_GETX            2      0.00%      0.00%
system.ruby.GPUL2Cache_Controller.MM.Other_GETS          145      0.00%      0.00%
system.ruby.GPUL2Cache_Controller.IM.Store           19      0.00%      0.00%
system.ruby.GPUL2Cache_Controller.IM.Ack          275      0.00%      0.00%
system.ruby.GPUL2Cache_Controller.IM.Exclusive_Data          146      0.00%      0.00%
system.ruby.GPUL2Cache_Controller.IS.Get           83      0.00%      0.00%
system.ruby.GPUL2Cache_Controller.IS.Ack          589      0.00%      0.00%
system.ruby.GPUL2Cache_Controller.IS.Shared_Data            3      0.00%      0.00%
system.ruby.GPUL2Cache_Controller.IS.Exclusive_Data          294      0.00%      0.00%
system.ruby.GPUL2Cache_Controller.SS.All_acks            3      0.00%      0.00%
system.ruby.GPUL2Cache_Controller.M_W.All_acks_no_sharers          294      0.00%      0.00%
system.ruby.GPUL2Cache_Controller.MM_W.Store            3      0.00%      0.00%
system.ruby.GPUL2Cache_Controller.MM_W.Ack           13      0.00%      0.00%
system.ruby.GPUL2Cache_Controller.MM_W.All_acks_no_sharers          146      0.00%      0.00%

---------- End Simulation Statistics   ----------
