
---------- Begin Simulation Statistics ----------
sim_seconds                                  0.004075                       # Number of seconds simulated
sim_ticks                                  4074849000                       # Number of ticks simulated
final_tick                                 4074849000                       # Number of ticks from beginning of simulation (restored from checkpoints and never reset)
sim_freq                                 1000000000000                       # Frequency of simulated ticks
host_inst_rate                                  16210                       # Simulator instruction rate (inst/s)
host_op_rate                                    26671                       # Simulator op (including micro ops) rate (op/s)
host_tick_rate                               39900005                       # Simulator tick rate (ticks/s)
host_mem_usage                                4524588                       # Number of bytes of host memory used
host_seconds                                   102.13                       # Real time elapsed on the host
sim_insts                                     1655422                       # Number of instructions simulated
sim_ops                                       2723795                       # Number of ops (including micro ops) simulated
system.voltage_domain.voltage                       1                       # Voltage in Volts
system.clk_domain.clock                          1000                       # Clock period in ticks
system.mem_ctrls.clk_domain.clock                2500                       # Clock period in ticks
system.mem_ctrls.bytes_read::ruby.dir_cntrl0       364672                       # Number of bytes read from this memory
system.mem_ctrls.bytes_read::total             364672                       # Number of bytes read from this memory
system.mem_ctrls.bytes_written::ruby.dir_cntrl0       107648                       # Number of bytes written to this memory
system.mem_ctrls.bytes_written::total          107648                       # Number of bytes written to this memory
system.mem_ctrls.num_reads::ruby.dir_cntrl0         2849                       # Number of read requests responded to by this memory
system.mem_ctrls.num_reads::total                2849                       # Number of read requests responded to by this memory
system.mem_ctrls.num_writes::ruby.dir_cntrl0          841                       # Number of write requests responded to by this memory
system.mem_ctrls.num_writes::total                841                       # Number of write requests responded to by this memory
system.mem_ctrls.bw_read::ruby.dir_cntrl0     89493378                       # Total read bandwidth from this memory (bytes/s)
system.mem_ctrls.bw_read::total              89493378                       # Total read bandwidth from this memory (bytes/s)
system.mem_ctrls.bw_write::ruby.dir_cntrl0     26417666                       # Write bandwidth from this memory (bytes/s)
system.mem_ctrls.bw_write::total             26417666                       # Write bandwidth from this memory (bytes/s)
system.mem_ctrls.bw_total::ruby.dir_cntrl0    115911044                       # Total bandwidth to/from this memory (bytes/s)
system.mem_ctrls.bw_total::total            115911044                       # Total bandwidth to/from this memory (bytes/s)
system.mem_ctrls.memReq                          3690                       # Total number of memory requests
system.mem_ctrls.memRead                         2849                       # Number of memory reads
system.mem_ctrls.memWrite                         841                       # Number of memory writes
system.mem_ctrls.memRefresh                     11312                       # Number of memory refreshes
system.mem_ctrls.memWaitCycles                  53582                       # Delay stalled at the head of the bank queue
system.mem_ctrls.memInputQ                      43007                       # Delay in the input queue
system.mem_ctrls.memBankQ                      170610                       # Delay behind the head of the bank queue
system.mem_ctrls.totalStalls                   267199                       # Total number of stall cycles
system.mem_ctrls.stallsPerReq               72.411653                       # Expected number of stall cycles per request
system.mem_ctrls.memBankBusy                    12316                       # memory stalls due to busy bank
system.mem_ctrls.memBusBusy                     14675                       # memory stalls due to busy bus
system.mem_ctrls.memDataBusBusy                  4147                       # memory stalls due to read read turnaround
system.mem_ctrls.memArbWait                      9850                       # memory stalls due to arbitration
system.mem_ctrls.memNotOld                      12594                       # memory stalls due to anti starvation
system.mem_ctrls.memBankCount            |         132      3.58%      3.58% |         109      2.95%      6.53% |         122      3.31%      9.84% |         126      3.41%     13.25% |         119      3.22%     16.48% |         121      3.28%     19.76% |         116      3.14%     22.90% |         111      3.01%     25.91% |         109      2.95%     28.86% |         108      2.93%     31.79% |         112      3.04%     34.82% |         121      3.28%     38.10% |         114      3.09%     41.19% |         118      3.20%     44.39% |         130      3.52%     47.91% |         143      3.88%     51.79% |         147      3.98%     55.77% |         116      3.14%     58.92% |         106      2.87%     61.79% |         107      2.90%     64.69% |         109      2.95%     67.64% |         111      3.01%     70.65% |         103      2.79%     73.44% |         101      2.74%     76.18% |         104      2.82%     79.00% |         109      2.95%     81.95% |         110      2.98%     84.93% |         112      3.04%     87.97% |         108      2.93%     90.89% |         112      3.04%     93.93% |         109      2.95%     96.88% |         115      3.12%    100.00% # Number of accesses per bank
system.mem_ctrls.memBankCount::total             3690                       # Number of accesses per bank
system.ruby_clk_domain.clock                      500                       # Clock period in ticks
system.ruby.phys_mem.bytes_read::writebacks        45620                       # Number of bytes read from this memory
system.ruby.phys_mem.bytes_read::cpu.inst     18887824                       # Number of bytes read from this memory
system.ruby.phys_mem.bytes_read::cpu.data      2308614                       # Number of bytes read from this memory
system.ruby.phys_mem.bytes_read::gpu.ce         53252                       # Number of bytes read from this memory
system.ruby.phys_mem.bytes_read::gpu.shader_cores0.data      2059008                       # Number of bytes read from this memory
system.ruby.phys_mem.bytes_read::gpu.shader_cores0.inst          792                       # Number of bytes read from this memory
system.ruby.phys_mem.bytes_read::gpu.shader_cores1.data      1683360                       # Number of bytes read from this memory
system.ruby.phys_mem.bytes_read::gpu.shader_cores1.inst          920                       # Number of bytes read from this memory
system.ruby.phys_mem.bytes_read::gpu.shader_cores2.data      1623424                       # Number of bytes read from this memory
system.ruby.phys_mem.bytes_read::gpu.shader_cores2.inst         1288                       # Number of bytes read from this memory
system.ruby.phys_mem.bytes_read::gpu.shader_cores3.data      2082176                       # Number of bytes read from this memory
system.ruby.phys_mem.bytes_read::gpu.shader_cores3.inst         1032                       # Number of bytes read from this memory
system.ruby.phys_mem.bytes_read::total       28747310                       # Number of bytes read from this memory
system.ruby.phys_mem.bytes_inst_read::cpu.inst     18887824                       # Number of instructions bytes read from this memory
system.ruby.phys_mem.bytes_inst_read::gpu.shader_cores0.inst          792                       # Number of instructions bytes read from this memory
system.ruby.phys_mem.bytes_inst_read::gpu.shader_cores1.inst          920                       # Number of instructions bytes read from this memory
system.ruby.phys_mem.bytes_inst_read::gpu.shader_cores2.inst         1288                       # Number of instructions bytes read from this memory
system.ruby.phys_mem.bytes_inst_read::gpu.shader_cores3.inst         1032                       # Number of instructions bytes read from this memory
system.ruby.phys_mem.bytes_inst_read::total     18891856                       # Number of instructions bytes read from this memory
system.ruby.phys_mem.bytes_written::writebacks        45620                       # Number of bytes written to this memory
system.ruby.phys_mem.bytes_written::cpu.data      1152843                       # Number of bytes written to this memory
system.ruby.phys_mem.bytes_written::gpu.ce        53252                       # Number of bytes written to this memory
system.ruby.phys_mem.bytes_written::gpu.shader_cores0.data        34100                       # Number of bytes written to this memory
system.ruby.phys_mem.bytes_written::gpu.shader_cores1.data        34408                       # Number of bytes written to this memory
system.ruby.phys_mem.bytes_written::gpu.shader_cores2.data        64272                       # Number of bytes written to this memory
system.ruby.phys_mem.bytes_written::gpu.shader_cores3.data        36960                       # Number of bytes written to this memory
system.ruby.phys_mem.bytes_written::total      1421455                       # Number of bytes written to this memory
system.ruby.phys_mem.num_reads::writebacks        11405                       # Number of read requests responded to by this memory
system.ruby.phys_mem.num_reads::cpu.inst      2360978                       # Number of read requests responded to by this memory
system.ruby.phys_mem.num_reads::cpu.data       312534                       # Number of read requests responded to by this memory
system.ruby.phys_mem.num_reads::gpu.ce            424                       # Number of read requests responded to by this memory
system.ruby.phys_mem.num_reads::gpu.shader_cores0.data        60997                       # Number of read requests responded to by this memory
system.ruby.phys_mem.num_reads::gpu.shader_cores0.inst           50                       # Number of read requests responded to by this memory
system.ruby.phys_mem.num_reads::gpu.shader_cores1.data        49126                       # Number of read requests responded to by this memory
system.ruby.phys_mem.num_reads::gpu.shader_cores1.inst           58                       # Number of read requests responded to by this memory
system.ruby.phys_mem.num_reads::gpu.shader_cores2.data        46279                       # Number of read requests responded to by this memory
system.ruby.phys_mem.num_reads::gpu.shader_cores2.inst           81                       # Number of read requests responded to by this memory
system.ruby.phys_mem.num_reads::gpu.shader_cores3.data        60656                       # Number of read requests responded to by this memory
system.ruby.phys_mem.num_reads::gpu.shader_cores3.inst           65                       # Number of read requests responded to by this memory
system.ruby.phys_mem.num_reads::total         2902653                       # Number of read requests responded to by this memory
system.ruby.phys_mem.num_writes::writebacks        11405                       # Number of write requests responded to by this memory
system.ruby.phys_mem.num_writes::cpu.data       165456                       # Number of write requests responded to by this memory
system.ruby.phys_mem.num_writes::gpu.ce           423                       # Number of write requests responded to by this memory
system.ruby.phys_mem.num_writes::gpu.shader_cores0.data         2281                       # Number of write requests responded to by this memory
system.ruby.phys_mem.num_writes::gpu.shader_cores1.data         2440                       # Number of write requests responded to by this memory
system.ruby.phys_mem.num_writes::gpu.shader_cores2.data         2814                       # Number of write requests responded to by this memory
system.ruby.phys_mem.num_writes::gpu.shader_cores3.data         2902                       # Number of write requests responded to by this memory
system.ruby.phys_mem.num_writes::total         187721                       # Number of write requests responded to by this memory
system.ruby.phys_mem.bw_read::writebacks     11195507                       # Total read bandwidth from this memory (bytes/s)
system.ruby.phys_mem.bw_read::cpu.inst     4635220593                       # Total read bandwidth from this memory (bytes/s)
system.ruby.phys_mem.bw_read::cpu.data      566552037                       # Total read bandwidth from this memory (bytes/s)
system.ruby.phys_mem.bw_read::gpu.ce         13068460                       # Total read bandwidth from this memory (bytes/s)
system.ruby.phys_mem.bw_read::gpu.shader_cores0.data    505296761                       # Total read bandwidth from this memory (bytes/s)
system.ruby.phys_mem.bw_read::gpu.shader_cores0.inst       194363                       # Total read bandwidth from this memory (bytes/s)
system.ruby.phys_mem.bw_read::gpu.shader_cores1.data    413109786                       # Total read bandwidth from this memory (bytes/s)
system.ruby.phys_mem.bw_read::gpu.shader_cores1.inst       225775                       # Total read bandwidth from this memory (bytes/s)
system.ruby.phys_mem.bw_read::gpu.shader_cores2.data    398401021                       # Total read bandwidth from this memory (bytes/s)
system.ruby.phys_mem.bw_read::gpu.shader_cores2.inst       316085                       # Total read bandwidth from this memory (bytes/s)
system.ruby.phys_mem.bw_read::gpu.shader_cores3.data    510982370                       # Total read bandwidth from this memory (bytes/s)
system.ruby.phys_mem.bw_read::gpu.shader_cores3.inst       253261                       # Total read bandwidth from this memory (bytes/s)
system.ruby.phys_mem.bw_read::total        7054816019                       # Total read bandwidth from this memory (bytes/s)
system.ruby.phys_mem.bw_inst_read::cpu.inst   4635220593                       # Instruction read bandwidth from this memory (bytes/s)
system.ruby.phys_mem.bw_inst_read::gpu.shader_cores0.inst       194363                       # Instruction read bandwidth from this memory (bytes/s)
system.ruby.phys_mem.bw_inst_read::gpu.shader_cores1.inst       225775                       # Instruction read bandwidth from this memory (bytes/s)
system.ruby.phys_mem.bw_inst_read::gpu.shader_cores2.inst       316085                       # Instruction read bandwidth from this memory (bytes/s)
system.ruby.phys_mem.bw_inst_read::gpu.shader_cores3.inst       253261                       # Instruction read bandwidth from this memory (bytes/s)
system.ruby.phys_mem.bw_inst_read::total   4636210078                       # Instruction read bandwidth from this memory (bytes/s)
system.ruby.phys_mem.bw_write::writebacks     11195507                       # Write bandwidth from this memory (bytes/s)
system.ruby.phys_mem.bw_write::cpu.data     282916741                       # Write bandwidth from this memory (bytes/s)
system.ruby.phys_mem.bw_write::gpu.ce        13068460                       # Write bandwidth from this memory (bytes/s)
system.ruby.phys_mem.bw_write::gpu.shader_cores0.data      8368408                       # Write bandwidth from this memory (bytes/s)
system.ruby.phys_mem.bw_write::gpu.shader_cores1.data      8443994                       # Write bandwidth from this memory (bytes/s)
system.ruby.phys_mem.bw_write::gpu.shader_cores2.data     15772854                       # Write bandwidth from this memory (bytes/s)
system.ruby.phys_mem.bw_write::gpu.shader_cores3.data      9070275                       # Write bandwidth from this memory (bytes/s)
system.ruby.phys_mem.bw_write::total        348836239                       # Write bandwidth from this memory (bytes/s)
system.ruby.phys_mem.bw_total::writebacks     22391014                       # Total bandwidth to/from this memory (bytes/s)
system.ruby.phys_mem.bw_total::cpu.inst    4635220593                       # Total bandwidth to/from this memory (bytes/s)
system.ruby.phys_mem.bw_total::cpu.data     849468778                       # Total bandwidth to/from this memory (bytes/s)
system.ruby.phys_mem.bw_total::gpu.ce        26136919                       # Total bandwidth to/from this memory (bytes/s)
system.ruby.phys_mem.bw_total::gpu.shader_cores0.data    513665169                       # Total bandwidth to/from this memory (bytes/s)
system.ruby.phys_mem.bw_total::gpu.shader_cores0.inst       194363                       # Total bandwidth to/from this memory (bytes/s)
system.ruby.phys_mem.bw_total::gpu.shader_cores1.data    421553780                       # Total bandwidth to/from this memory (bytes/s)
system.ruby.phys_mem.bw_total::gpu.shader_cores1.inst       225775                       # Total bandwidth to/from this memory (bytes/s)
system.ruby.phys_mem.bw_total::gpu.shader_cores2.data    414173875                       # Total bandwidth to/from this memory (bytes/s)
system.ruby.phys_mem.bw_total::gpu.shader_cores2.inst       316085                       # Total bandwidth to/from this memory (bytes/s)
system.ruby.phys_mem.bw_total::gpu.shader_cores3.data    520052645                       # Total bandwidth to/from this memory (bytes/s)
system.ruby.phys_mem.bw_total::gpu.shader_cores3.inst       253261                       # Total bandwidth to/from this memory (bytes/s)
system.ruby.phys_mem.bw_total::total       7403652258                       # Total bandwidth to/from this memory (bytes/s)
system.cpu_voltage_domain.voltage                   1                       # Voltage in Volts
system.cpu_clk_domain.clock                       500                       # Clock period in ticks
system.cpu.apic_clk_domain.clock                 8000                       # Clock period in ticks
system.cpu.workload.num_syscalls                   28                       # Number of system calls
system.cpu.numCycles                          8149698                       # number of cpu cycles simulated
system.cpu.numWorkItemsStarted                      1                       # number of work items this cpu started
system.cpu.numWorkItemsCompleted                    1                       # number of work items this cpu completed
system.cpu.committedInsts                     1655422                       # Number of instructions committed
system.cpu.committedOps                       2723795                       # Number of ops (including micro ops) committed
system.cpu.num_int_alu_accesses               1974685                       # Number of integer alu accesses
system.cpu.num_fp_alu_accesses                1026154                       # Number of float alu accesses
system.cpu.num_func_calls                       31676                       # number of times a function call or return occured
system.cpu.num_conditional_control_insts       149212                       # number of instructions that are conditional controls
system.cpu.num_int_insts                      1974685                       # number of integer instructions
system.cpu.num_fp_insts                       1026154                       # number of float instructions
system.cpu.num_int_register_reads             3737314                       # number of times the integer registers were read
system.cpu.num_int_register_writes            1435235                       # number of times the integer registers were written
system.cpu.num_fp_register_reads              1958134                       # number of times the floating registers were read
system.cpu.num_fp_register_writes              903395                       # number of times the floating registers were written
system.cpu.num_cc_register_reads              1056933                       # number of times the CC registers were read
system.cpu.num_cc_register_writes              673739                       # number of times the CC registers were written
system.cpu.num_mem_refs                        477984                       # number of memory refs
system.cpu.num_load_insts                      312528                       # Number of load instructions
system.cpu.num_store_insts                     165456                       # Number of store instructions
system.cpu.num_idle_cycles               2220274.039455                       # Number of idle cycles
system.cpu.num_busy_cycles               5929423.960545                       # Number of busy cycles
system.cpu.not_idle_fraction                 0.727564                       # Percentage of non-idle cycles
system.cpu.idle_fraction                     0.272436                       # Percentage of idle cycles
system.cpu.Branches                            196567                       # Number of branches fetched
system.cpu.op_class::No_OpClass                  2269      0.08%      0.08% # Class of executed instruction
system.cpu.op_class::IntAlu                   1718563     63.09%     63.18% # Class of executed instruction
system.cpu.op_class::IntMult                    18031      0.66%     63.84% # Class of executed instruction
system.cpu.op_class::IntDiv                      1293      0.05%     63.89% # Class of executed instruction
system.cpu.op_class::FloatAdd                  505655     18.56%     82.45% # Class of executed instruction
system.cpu.op_class::FloatCmp                       0      0.00%     82.45% # Class of executed instruction
system.cpu.op_class::FloatCvt                       0      0.00%     82.45% # Class of executed instruction
system.cpu.op_class::FloatMult                      0      0.00%     82.45% # Class of executed instruction
system.cpu.op_class::FloatDiv                       0      0.00%     82.45% # Class of executed instruction
system.cpu.op_class::FloatSqrt                      0      0.00%     82.45% # Class of executed instruction
system.cpu.op_class::SimdAdd                        0      0.00%     82.45% # Class of executed instruction
system.cpu.op_class::SimdAddAcc                     0      0.00%     82.45% # Class of executed instruction
system.cpu.op_class::SimdAlu                        0      0.00%     82.45% # Class of executed instruction
system.cpu.op_class::SimdCmp                        0      0.00%     82.45% # Class of executed instruction
system.cpu.op_class::SimdCvt                        0      0.00%     82.45% # Class of executed instruction
system.cpu.op_class::SimdMisc                       0      0.00%     82.45% # Class of executed instruction
system.cpu.op_class::SimdMult                       0      0.00%     82.45% # Class of executed instruction
system.cpu.op_class::SimdMultAcc                    0      0.00%     82.45% # Class of executed instruction
system.cpu.op_class::SimdShift                      0      0.00%     82.45% # Class of executed instruction
system.cpu.op_class::SimdShiftAcc                   0      0.00%     82.45% # Class of executed instruction
system.cpu.op_class::SimdSqrt                       0      0.00%     82.45% # Class of executed instruction
system.cpu.op_class::SimdFloatAdd                   0      0.00%     82.45% # Class of executed instruction
system.cpu.op_class::SimdFloatAlu                   0      0.00%     82.45% # Class of executed instruction
system.cpu.op_class::SimdFloatCmp                   0      0.00%     82.45% # Class of executed instruction
system.cpu.op_class::SimdFloatCvt                   0      0.00%     82.45% # Class of executed instruction
system.cpu.op_class::SimdFloatDiv                   0      0.00%     82.45% # Class of executed instruction
system.cpu.op_class::SimdFloatMisc                  0      0.00%     82.45% # Class of executed instruction
system.cpu.op_class::SimdFloatMult                  0      0.00%     82.45% # Class of executed instruction
system.cpu.op_class::SimdFloatMultAcc               0      0.00%     82.45% # Class of executed instruction
system.cpu.op_class::SimdFloatSqrt                  0      0.00%     82.45% # Class of executed instruction
system.cpu.op_class::MemRead                   312528     11.47%     93.93% # Class of executed instruction
system.cpu.op_class::MemWrite                  165456      6.07%    100.00% # Class of executed instruction
system.cpu.op_class::IprAccess                      0      0.00%    100.00% # Class of executed instruction
system.cpu.op_class::InstPrefetch                   0      0.00%    100.00% # Class of executed instruction
system.cpu.op_class::total                    2723795                       # Class of executed instruction
system.gpu.clk_domain.voltage_domain.voltage            1                       # Voltage in Volts
system.gpu.clk_domain.clock                      1429                       # Clock period in ticks
system.gpu.dram_wrapper.clk_domain.clock          541                       # Clock period in ticks
system.gpu.icnt_wrapper.clk_domain.clock         2858                       # Clock period in ticks
system.ruby.delayHist::bucket_size                128                       # delay histogram for all message
system.ruby.delayHist::max_bucket                1279                       # delay histogram for all message
system.ruby.delayHist::samples                  22721                       # delay histogram for all message
system.ruby.delayHist::mean                  3.346156                       # delay histogram for all message
system.ruby.delayHist::stdev                32.175333                       # delay histogram for all message
system.ruby.delayHist                    |       22616     99.54%     99.54% |          27      0.12%     99.66% |          19      0.08%     99.74% |          21      0.09%     99.83% |          19      0.08%     99.92% |          18      0.08%    100.00% |           1      0.00%    100.00% |           0      0.00%    100.00% |           0      0.00%    100.00% |           0      0.00%    100.00% # delay histogram for all message
system.ruby.delayHist::total                    22721                       # delay histogram for all message
system.ruby.outstanding_req_hist::bucket_size            8                      
system.ruby.outstanding_req_hist::max_bucket           79                      
system.ruby.outstanding_req_hist::samples      3072138                      
system.ruby.outstanding_req_hist::mean       1.085459                      
system.ruby.outstanding_req_hist::gmean      1.023149                      
system.ruby.outstanding_req_hist::stdev      1.278074                      
system.ruby.outstanding_req_hist         |     3060722     99.63%     99.63% |        7151      0.23%     99.86% |        2150      0.07%     99.93% |        1008      0.03%     99.96% |         469      0.02%     99.98% |          59      0.00%     99.98% |          32      0.00%     99.98% |         421      0.01%    100.00% |         126      0.00%    100.00% |           0      0.00%    100.00%
system.ruby.outstanding_req_hist::total       3072138                      
system.ruby.latency_hist::bucket_size             512                      
system.ruby.latency_hist::max_bucket             5119                      
system.ruby.latency_hist::samples             3072138                      
system.ruby.latency_hist::mean               3.383666                      
system.ruby.latency_hist::gmean              1.047087                      
system.ruby.latency_hist::stdev             43.417927                      
system.ruby.latency_hist                 |     3071153     99.97%     99.97% |         234      0.01%     99.98% |         113      0.00%     99.98% |         187      0.01%     99.99% |         189      0.01%     99.99% |         142      0.00%    100.00% |          67      0.00%    100.00% |          50      0.00%    100.00% |           3      0.00%    100.00% |           0      0.00%    100.00%
system.ruby.latency_hist::total               3072138                      
system.ruby.hit_latency_hist::bucket_size          512                      
system.ruby.hit_latency_hist::max_bucket         5119                      
system.ruby.hit_latency_hist::samples         3058259                      
system.ruby.hit_latency_hist::mean           2.387716                      
system.ruby.hit_latency_hist::gmean          1.022049                      
system.ruby.hit_latency_hist::stdev         40.688934                      
system.ruby.hit_latency_hist             |     3057405     99.97%     99.97% |         105      0.00%     99.98% |         112      0.00%     99.98% |         186      0.01%     99.99% |         189      0.01%     99.99% |         142      0.00%    100.00% |          67      0.00%    100.00% |          50      0.00%    100.00% |           3      0.00%    100.00% |           0      0.00%    100.00%
system.ruby.hit_latency_hist::total           3058259                      
system.ruby.miss_latency_hist::bucket_size          256                      
system.ruby.miss_latency_hist::max_bucket         2559                      
system.ruby.miss_latency_hist::samples          13879                      
system.ruby.miss_latency_hist::mean        222.842712                      
system.ruby.miss_latency_hist::gmean       216.827323                      
system.ruby.miss_latency_hist::stdev        63.884118                      
system.ruby.miss_latency_hist            |       13268     95.60%     95.60% |         480      3.46%     99.06% |         128      0.92%     99.98% |           1      0.01%     99.99% |           1      0.01%     99.99% |           0      0.00%     99.99% |           1      0.01%    100.00% |           0      0.00%    100.00% |           0      0.00%    100.00% |           0      0.00%    100.00%
system.ruby.miss_latency_hist::total            13879                      
system.ruby.L1Cache.incomplete_times                3                      
system.ruby.GPUL2Cache.incomplete_times         11978                      
system.ruby.Directory.incomplete_times            303                      
system.gpu.shader_mmu.numPagefaults                 0                       # Number of Pagefaults
system.gpu.shader_mmu.numPagewalks                 29                       # Number of Pagewalks
system.gpu.shader_mmu.totalRequests                29                       # Total number of requests
system.gpu.shader_mmu.l2hits                        0                       # Hits in the shared L2
system.gpu.shader_mmu.prefetchHits                  0                       # Number of prefetch hits
system.gpu.shader_mmu.numPrefetches                 0                       # Number of prefetchs
system.gpu.shader_mmu.prefetchFaults                0                       # Number of faults caused by prefetches
system.gpu.shader_mmu.pagefaultLatency::samples            0                       # Latency to complete the pagefault
system.gpu.shader_mmu.pagefaultLatency::mean          nan                       # Latency to complete the pagefault
system.gpu.shader_mmu.pagefaultLatency::gmean          nan                       # Latency to complete the pagefault
system.gpu.shader_mmu.pagefaultLatency::stdev          nan                       # Latency to complete the pagefault
system.gpu.shader_mmu.pagefaultLatency::0            0                       # Latency to complete the pagefault
system.gpu.shader_mmu.pagefaultLatency::1            0                       # Latency to complete the pagefault
system.gpu.shader_mmu.pagefaultLatency::2            0                       # Latency to complete the pagefault
system.gpu.shader_mmu.pagefaultLatency::3            0                       # Latency to complete the pagefault
system.gpu.shader_mmu.pagefaultLatency::4            0                       # Latency to complete the pagefault
system.gpu.shader_mmu.pagefaultLatency::5            0                       # Latency to complete the pagefault
system.gpu.shader_mmu.pagefaultLatency::6            0                       # Latency to complete the pagefault
system.gpu.shader_mmu.pagefaultLatency::7            0                       # Latency to complete the pagefault
system.gpu.shader_mmu.pagefaultLatency::8            0                       # Latency to complete the pagefault
system.gpu.shader_mmu.pagefaultLatency::9            0                       # Latency to complete the pagefault
system.gpu.shader_mmu.pagefaultLatency::10            0                       # Latency to complete the pagefault
system.gpu.shader_mmu.pagefaultLatency::11            0                       # Latency to complete the pagefault
system.gpu.shader_mmu.pagefaultLatency::12            0                       # Latency to complete the pagefault
system.gpu.shader_mmu.pagefaultLatency::13            0                       # Latency to complete the pagefault
system.gpu.shader_mmu.pagefaultLatency::14            0                       # Latency to complete the pagefault
system.gpu.shader_mmu.pagefaultLatency::15            0                       # Latency to complete the pagefault
system.gpu.shader_mmu.pagefaultLatency::16            0                       # Latency to complete the pagefault
system.gpu.shader_mmu.pagefaultLatency::17            0                       # Latency to complete the pagefault
system.gpu.shader_mmu.pagefaultLatency::18            0                       # Latency to complete the pagefault
system.gpu.shader_mmu.pagefaultLatency::19            0                       # Latency to complete the pagefault
system.gpu.shader_mmu.pagefaultLatency::20            0                       # Latency to complete the pagefault
system.gpu.shader_mmu.pagefaultLatency::21            0                       # Latency to complete the pagefault
system.gpu.shader_mmu.pagefaultLatency::22            0                       # Latency to complete the pagefault
system.gpu.shader_mmu.pagefaultLatency::23            0                       # Latency to complete the pagefault
system.gpu.shader_mmu.pagefaultLatency::24            0                       # Latency to complete the pagefault
system.gpu.shader_mmu.pagefaultLatency::25            0                       # Latency to complete the pagefault
system.gpu.shader_mmu.pagefaultLatency::26            0                       # Latency to complete the pagefault
system.gpu.shader_mmu.pagefaultLatency::27            0                       # Latency to complete the pagefault
system.gpu.shader_mmu.pagefaultLatency::28            0                       # Latency to complete the pagefault
system.gpu.shader_mmu.pagefaultLatency::29            0                       # Latency to complete the pagefault
system.gpu.shader_mmu.pagefaultLatency::30            0                       # Latency to complete the pagefault
system.gpu.shader_mmu.pagefaultLatency::31            0                       # Latency to complete the pagefault
system.gpu.shader_mmu.pagefaultLatency::total            0                       # Latency to complete the pagefault
system.gpu.shader_mmu.concurrentWalks::samples           29                       # Number of outstanding walks
system.gpu.shader_mmu.concurrentWalks::mean            0                       # Number of outstanding walks
system.gpu.shader_mmu.concurrentWalks::gmean            0                       # Number of outstanding walks
system.gpu.shader_mmu.concurrentWalks::stdev            0                       # Number of outstanding walks
system.gpu.shader_mmu.concurrentWalks::0           29    100.00%    100.00% # Number of outstanding walks
system.gpu.shader_mmu.concurrentWalks::1            0      0.00%    100.00% # Number of outstanding walks
system.gpu.shader_mmu.concurrentWalks::2            0      0.00%    100.00% # Number of outstanding walks
system.gpu.shader_mmu.concurrentWalks::3            0      0.00%    100.00% # Number of outstanding walks
system.gpu.shader_mmu.concurrentWalks::4            0      0.00%    100.00% # Number of outstanding walks
system.gpu.shader_mmu.concurrentWalks::5            0      0.00%    100.00% # Number of outstanding walks
system.gpu.shader_mmu.concurrentWalks::6            0      0.00%    100.00% # Number of outstanding walks
system.gpu.shader_mmu.concurrentWalks::7            0      0.00%    100.00% # Number of outstanding walks
system.gpu.shader_mmu.concurrentWalks::8            0      0.00%    100.00% # Number of outstanding walks
system.gpu.shader_mmu.concurrentWalks::9            0      0.00%    100.00% # Number of outstanding walks
system.gpu.shader_mmu.concurrentWalks::10            0      0.00%    100.00% # Number of outstanding walks
system.gpu.shader_mmu.concurrentWalks::11            0      0.00%    100.00% # Number of outstanding walks
system.gpu.shader_mmu.concurrentWalks::12            0      0.00%    100.00% # Number of outstanding walks
system.gpu.shader_mmu.concurrentWalks::13            0      0.00%    100.00% # Number of outstanding walks
system.gpu.shader_mmu.concurrentWalks::14            0      0.00%    100.00% # Number of outstanding walks
system.gpu.shader_mmu.concurrentWalks::15            0      0.00%    100.00% # Number of outstanding walks
system.gpu.shader_mmu.concurrentWalks::total           29                       # Number of outstanding walks
system.gpu.shader_mmu.pagewalkLatency::samples           29                       # Latency to complete the pagewalk
system.gpu.shader_mmu.pagewalkLatency::mean            0                       # Latency to complete the pagewalk
system.gpu.shader_mmu.pagewalkLatency::gmean            0                       # Latency to complete the pagewalk
system.gpu.shader_mmu.pagewalkLatency::stdev            0                       # Latency to complete the pagewalk
system.gpu.shader_mmu.pagewalkLatency::0           29    100.00%    100.00% # Latency to complete the pagewalk
system.gpu.shader_mmu.pagewalkLatency::1            0      0.00%    100.00% # Latency to complete the pagewalk
system.gpu.shader_mmu.pagewalkLatency::2            0      0.00%    100.00% # Latency to complete the pagewalk
system.gpu.shader_mmu.pagewalkLatency::3            0      0.00%    100.00% # Latency to complete the pagewalk
system.gpu.shader_mmu.pagewalkLatency::4            0      0.00%    100.00% # Latency to complete the pagewalk
system.gpu.shader_mmu.pagewalkLatency::5            0      0.00%    100.00% # Latency to complete the pagewalk
system.gpu.shader_mmu.pagewalkLatency::6            0      0.00%    100.00% # Latency to complete the pagewalk
system.gpu.shader_mmu.pagewalkLatency::7            0      0.00%    100.00% # Latency to complete the pagewalk
system.gpu.shader_mmu.pagewalkLatency::8            0      0.00%    100.00% # Latency to complete the pagewalk
system.gpu.shader_mmu.pagewalkLatency::9            0      0.00%    100.00% # Latency to complete the pagewalk
system.gpu.shader_mmu.pagewalkLatency::10            0      0.00%    100.00% # Latency to complete the pagewalk
system.gpu.shader_mmu.pagewalkLatency::11            0      0.00%    100.00% # Latency to complete the pagewalk
system.gpu.shader_mmu.pagewalkLatency::12            0      0.00%    100.00% # Latency to complete the pagewalk
system.gpu.shader_mmu.pagewalkLatency::13            0      0.00%    100.00% # Latency to complete the pagewalk
system.gpu.shader_mmu.pagewalkLatency::14            0      0.00%    100.00% # Latency to complete the pagewalk
system.gpu.shader_mmu.pagewalkLatency::15            0      0.00%    100.00% # Latency to complete the pagewalk
system.gpu.shader_mmu.pagewalkLatency::16            0      0.00%    100.00% # Latency to complete the pagewalk
system.gpu.shader_mmu.pagewalkLatency::17            0      0.00%    100.00% # Latency to complete the pagewalk
system.gpu.shader_mmu.pagewalkLatency::18            0      0.00%    100.00% # Latency to complete the pagewalk
system.gpu.shader_mmu.pagewalkLatency::19            0      0.00%    100.00% # Latency to complete the pagewalk
system.gpu.shader_mmu.pagewalkLatency::20            0      0.00%    100.00% # Latency to complete the pagewalk
system.gpu.shader_mmu.pagewalkLatency::21            0      0.00%    100.00% # Latency to complete the pagewalk
system.gpu.shader_mmu.pagewalkLatency::22            0      0.00%    100.00% # Latency to complete the pagewalk
system.gpu.shader_mmu.pagewalkLatency::23            0      0.00%    100.00% # Latency to complete the pagewalk
system.gpu.shader_mmu.pagewalkLatency::24            0      0.00%    100.00% # Latency to complete the pagewalk
system.gpu.shader_mmu.pagewalkLatency::25            0      0.00%    100.00% # Latency to complete the pagewalk
system.gpu.shader_mmu.pagewalkLatency::26            0      0.00%    100.00% # Latency to complete the pagewalk
system.gpu.shader_mmu.pagewalkLatency::27            0      0.00%    100.00% # Latency to complete the pagewalk
system.gpu.shader_mmu.pagewalkLatency::28            0      0.00%    100.00% # Latency to complete the pagewalk
system.gpu.shader_mmu.pagewalkLatency::29            0      0.00%    100.00% # Latency to complete the pagewalk
system.gpu.shader_mmu.pagewalkLatency::30            0      0.00%    100.00% # Latency to complete the pagewalk
system.gpu.shader_mmu.pagewalkLatency::31            0      0.00%    100.00% # Latency to complete the pagewalk
system.gpu.shader_mmu.pagewalkLatency::total           29                       # Latency to complete the pagewalk
system.gpu.kernels_started                          9                       # Number of kernels started
system.gpu.kernels_completed                        9                       # Number of kernels completed
system.gpu.ce.device_dtb.hits                       0                       # Number of hits in this TLB
system.gpu.ce.device_dtb.misses                     0                       # Number of misses in this TLB
system.gpu.ce.device_dtb.hitRate                  nan                       # Hit rate for this TLB
system.gpu.ce.host_dtb.hits                       401                       # Number of hits in this TLB
system.gpu.ce.host_dtb.misses                      29                       # Number of misses in this TLB
system.gpu.ce.host_dtb.hitRate               0.932558                       # Hit rate for this TLB
system.gpu.ce.numOperations                        14                       # Number of copy/memset operations
system.gpu.ce.opBytesRead                       53252                       # Number of copy bytes read
system.gpu.ce.opBytesWritten                    53252                       # Number of copy/memset bytes written
system.gpu.ce.opTimeTicks                    76050287                       # Total time spent in copy/memset operations
system.gpu.shader_cores0.itb.hits                   0                       # Number of hits in this TLB
system.gpu.shader_cores0.itb.misses                 0                       # Number of misses in this TLB
system.gpu.shader_cores0.itb.hitRate              nan                       # Hit rate for this TLB
system.gpu.shader_cores0.local_loads                0                       # Number of loads from local space
system.gpu.shader_cores0.local_stores               0                       # Number of stores to local space
system.gpu.shader_cores0.shared_loads          363381                       # Number of loads from shared space
system.gpu.shader_cores0.shared_stores          28384                       # Number of stores to shared space
system.gpu.shader_cores0.param_kernel_loads       744426                       # Number of loads from kernel parameter space
system.gpu.shader_cores0.param_local_loads            0                       # Number of loads from local parameter space
system.gpu.shader_cores0.param_local_stores            0                       # Number of stores to local parameter space
system.gpu.shader_cores0.const_loads                0                       # Number of loads from constant space
system.gpu.shader_cores0.tex_loads                  0                       # Number of loads from texture space
system.gpu.shader_cores0.global_loads         1833490                       # Number of loads from global space
system.gpu.shader_cores0.global_stores           8525                       # Number of stores to global space
system.gpu.shader_cores0.surf_loads                 0                       # Number of loads from surface space
system.gpu.shader_cores0.generic_loads              0                       # Number of loads from generic spaces (global, shared, local)
system.gpu.shader_cores0.generic_stores             0                       # Number of stores to generic spaces (global, shared, local)
system.gpu.shader_cores0.inst_cache_requests           50                       # Number of instruction cache requests sent
system.gpu.shader_cores0.inst_cache_retries            0                       # Number of instruction cache retries
system.gpu.shader_cores0.inst_counts::0             0                       # Inst counts: 1: ALU, 2: MAD, 3: CTRL, 4: SFU, 5: MEM, 6: TEX, 7: NOP
system.gpu.shader_cores0.inst_counts::1      11405261                       # Inst counts: 1: ALU, 2: MAD, 3: CTRL, 4: SFU, 5: MEM, 6: TEX, 7: NOP
system.gpu.shader_cores0.inst_counts::2       1826493                       # Inst counts: 1: ALU, 2: MAD, 3: CTRL, 4: SFU, 5: MEM, 6: TEX, 7: NOP
system.gpu.shader_cores0.inst_counts::3       1636366                       # Inst counts: 1: ALU, 2: MAD, 3: CTRL, 4: SFU, 5: MEM, 6: TEX, 7: NOP
system.gpu.shader_cores0.inst_counts::4        247872                       # Inst counts: 1: ALU, 2: MAD, 3: CTRL, 4: SFU, 5: MEM, 6: TEX, 7: NOP
system.gpu.shader_cores0.inst_counts::5       2978206                       # Inst counts: 1: ALU, 2: MAD, 3: CTRL, 4: SFU, 5: MEM, 6: TEX, 7: NOP
system.gpu.shader_cores0.inst_counts::6             0                       # Inst counts: 1: ALU, 2: MAD, 3: CTRL, 4: SFU, 5: MEM, 6: TEX, 7: NOP
system.gpu.shader_cores0.inst_counts::7             0                       # Inst counts: 1: ALU, 2: MAD, 3: CTRL, 4: SFU, 5: MEM, 6: TEX, 7: NOP
system.gpu.shader_cores0.activeCycles          667118                       # Number of cycles this shader was executing a CTA
system.gpu.shader_cores0.notStalledCycles       451964                       # Number of cycles this shader was actually executing at least one instance
system.gpu.shader_cores0.instInstances       18094198                       # Total instructions executed by all PEs in the core
system.gpu.shader_cores0.instPerCycle       27.122935                       # Instruction instances per cycle
system.gpu.shader_cores0.kernels_completed            8                       # Number of kernels completed
system.gpu.shader_cores0.lsq.data_tlb.hits            0                       # Number of hits in this TLB
system.gpu.shader_cores0.lsq.data_tlb.misses            0                       # Number of misses in this TLB
system.gpu.shader_cores0.lsq.data_tlb.hitRate          nan                       # Hit rate for this TLB
system.gpu.shader_cores0.lsq.warpInstBufActive::samples    602078520                       # Histogram of number of active warp inst buffers at a given time
system.gpu.shader_cores0.lsq.warpInstBufActive::mean     5.048039                       # Histogram of number of active warp inst buffers at a given time
system.gpu.shader_cores0.lsq.warpInstBufActive::gmean          nan                       # Histogram of number of active warp inst buffers at a given time
system.gpu.shader_cores0.lsq.warpInstBufActive::stdev     9.131886                       # Histogram of number of active warp inst buffers at a given time
system.gpu.shader_cores0.lsq.warpInstBufActive::0   -110855296    -18.41%    -18.41% # Histogram of number of active warp inst buffers at a given time
system.gpu.shader_cores0.lsq.warpInstBufActive::1    303878279     50.47%     32.06% # Histogram of number of active warp inst buffers at a given time
system.gpu.shader_cores0.lsq.warpInstBufActive::2    199302630     33.10%     65.16% # Histogram of number of active warp inst buffers at a given time
system.gpu.shader_cores0.lsq.warpInstBufActive::3     81927428     13.61%     78.77% # Histogram of number of active warp inst buffers at a given time
system.gpu.shader_cores0.lsq.warpInstBufActive::4     29773215      4.95%     83.71% # Histogram of number of active warp inst buffers at a given time
system.gpu.shader_cores0.lsq.warpInstBufActive::5     12482315      2.07%     85.79% # Histogram of number of active warp inst buffers at a given time
system.gpu.shader_cores0.lsq.warpInstBufActive::6      8355363      1.39%     87.18% # Histogram of number of active warp inst buffers at a given time
system.gpu.shader_cores0.lsq.warpInstBufActive::7      6984952      1.16%     88.34% # Histogram of number of active warp inst buffers at a given time
system.gpu.shader_cores0.lsq.warpInstBufActive::8      7114991      1.18%     89.52% # Histogram of number of active warp inst buffers at a given time
system.gpu.shader_cores0.lsq.warpInstBufActive::9      3465325      0.58%     90.09% # Histogram of number of active warp inst buffers at a given time
system.gpu.shader_cores0.lsq.warpInstBufActive::10      3079495      0.51%     90.60% # Histogram of number of active warp inst buffers at a given time
system.gpu.shader_cores0.lsq.warpInstBufActive::11      2858000      0.47%     91.08% # Histogram of number of active warp inst buffers at a given time
system.gpu.shader_cores0.lsq.warpInstBufActive::12      2110633      0.35%     91.43% # Histogram of number of active warp inst buffers at a given time
system.gpu.shader_cores0.lsq.warpInstBufActive::13      1543320      0.26%     91.69% # Histogram of number of active warp inst buffers at a given time
system.gpu.shader_cores0.lsq.warpInstBufActive::14      1840552      0.31%     91.99% # Histogram of number of active warp inst buffers at a given time
system.gpu.shader_cores0.lsq.warpInstBufActive::15      1879135      0.31%     92.30% # Histogram of number of active warp inst buffers at a given time
system.gpu.shader_cores0.lsq.warpInstBufActive::16      1496163      0.25%     92.55% # Histogram of number of active warp inst buffers at a given time
system.gpu.shader_cores0.lsq.warpInstBufActive::17      1467583      0.24%     92.80% # Histogram of number of active warp inst buffers at a given time
system.gpu.shader_cores0.lsq.warpInstBufActive::18      1783392      0.30%     93.09% # Histogram of number of active warp inst buffers at a given time
system.gpu.shader_cores0.lsq.warpInstBufActive::19      1463296      0.24%     93.34% # Histogram of number of active warp inst buffers at a given time
system.gpu.shader_cores0.lsq.warpInstBufActive::20      1306106      0.22%     93.55% # Histogram of number of active warp inst buffers at a given time
system.gpu.shader_cores0.lsq.warpInstBufActive::21      1303248      0.22%     93.77% # Histogram of number of active warp inst buffers at a given time
system.gpu.shader_cores0.lsq.warpInstBufActive::22      1346118      0.22%     93.99% # Histogram of number of active warp inst buffers at a given time
system.gpu.shader_cores0.lsq.warpInstBufActive::23      1287529      0.21%     94.21% # Histogram of number of active warp inst buffers at a given time
system.gpu.shader_cores0.lsq.warpInstBufActive::24      1286100      0.21%     94.42% # Histogram of number of active warp inst buffers at a given time
system.gpu.shader_cores0.lsq.warpInstBufActive::25      1253233      0.21%     94.63% # Histogram of number of active warp inst buffers at a given time
system.gpu.shader_cores0.lsq.warpInstBufActive::26      1273239      0.21%     94.84% # Histogram of number of active warp inst buffers at a given time
system.gpu.shader_cores0.lsq.warpInstBufActive::27      1296103      0.22%     95.05% # Histogram of number of active warp inst buffers at a given time
system.gpu.shader_cores0.lsq.warpInstBufActive::28      1267523      0.21%     95.26% # Histogram of number of active warp inst buffers at a given time
system.gpu.shader_cores0.lsq.warpInstBufActive::29      1281813      0.21%     95.48% # Histogram of number of active warp inst buffers at a given time
system.gpu.shader_cores0.lsq.warpInstBufActive::30      1256091      0.21%     95.69% # Histogram of number of active warp inst buffers at a given time
system.gpu.shader_cores0.lsq.warpInstBufActive::31      1281813      0.21%     95.90% # Histogram of number of active warp inst buffers at a given time
system.gpu.shader_cores0.lsq.warpInstBufActive::32      1327541      0.22%     96.12% # Histogram of number of active warp inst buffers at a given time
system.gpu.shader_cores0.lsq.warpInstBufActive::33      1250375      0.21%     96.33% # Histogram of number of active warp inst buffers at a given time
system.gpu.shader_cores0.lsq.warpInstBufActive::34      1264665      0.21%     96.54% # Histogram of number of active warp inst buffers at a given time
system.gpu.shader_cores0.lsq.warpInstBufActive::35      1387559      0.23%     96.77% # Histogram of number of active warp inst buffers at a given time
system.gpu.shader_cores0.lsq.warpInstBufActive::36      1241801      0.21%     96.97% # Histogram of number of active warp inst buffers at a given time
system.gpu.shader_cores0.lsq.warpInstBufActive::37      1250375      0.21%     97.18% # Histogram of number of active warp inst buffers at a given time
system.gpu.shader_cores0.lsq.warpInstBufActive::38      1263236      0.21%     97.39% # Histogram of number of active warp inst buffers at a given time
system.gpu.shader_cores0.lsq.warpInstBufActive::39      1240372      0.21%     97.60% # Histogram of number of active warp inst buffers at a given time
system.gpu.shader_cores0.lsq.warpInstBufActive::40      1236085      0.21%     97.80% # Histogram of number of active warp inst buffers at a given time
system.gpu.shader_cores0.lsq.warpInstBufActive::41      1238943      0.21%     98.01% # Histogram of number of active warp inst buffers at a given time
system.gpu.shader_cores0.lsq.warpInstBufActive::42      1258949      0.21%     98.22% # Histogram of number of active warp inst buffers at a given time
system.gpu.shader_cores0.lsq.warpInstBufActive::43      1364695      0.23%     98.44% # Histogram of number of active warp inst buffers at a given time
system.gpu.shader_cores0.lsq.warpInstBufActive::44      1281813      0.21%     98.66% # Histogram of number of active warp inst buffers at a given time
system.gpu.shader_cores0.lsq.warpInstBufActive::45      1233227      0.20%     98.86% # Histogram of number of active warp inst buffers at a given time
system.gpu.shader_cores0.lsq.warpInstBufActive::46      1234656      0.21%     99.07% # Histogram of number of active warp inst buffers at a given time
system.gpu.shader_cores0.lsq.warpInstBufActive::47      1316109      0.22%     99.29% # Histogram of number of active warp inst buffers at a given time
system.gpu.shader_cores0.lsq.warpInstBufActive::48      1154632      0.19%     99.48% # Histogram of number of active warp inst buffers at a given time
system.gpu.shader_cores0.lsq.warpInstBufActive::49        14290      0.00%     99.48% # Histogram of number of active warp inst buffers at a given time
system.gpu.shader_cores0.lsq.warpInstBufActive::50        52873      0.01%     99.49% # Histogram of number of active warp inst buffers at a given time
system.gpu.shader_cores0.lsq.warpInstBufActive::51         5716      0.00%     99.49% # Histogram of number of active warp inst buffers at a given time
system.gpu.shader_cores0.lsq.warpInstBufActive::52         8574      0.00%     99.49% # Histogram of number of active warp inst buffers at a given time
system.gpu.shader_cores0.lsq.warpInstBufActive::53         7145      0.00%     99.49% # Histogram of number of active warp inst buffers at a given time
system.gpu.shader_cores0.lsq.warpInstBufActive::54        11432      0.00%     99.49% # Histogram of number of active warp inst buffers at a given time
system.gpu.shader_cores0.lsq.warpInstBufActive::55        10003      0.00%     99.50% # Histogram of number of active warp inst buffers at a given time
system.gpu.shader_cores0.lsq.warpInstBufActive::56        25722      0.00%     99.50% # Histogram of number of active warp inst buffers at a given time
system.gpu.shader_cores0.lsq.warpInstBufActive::57        11432      0.00%     99.50% # Histogram of number of active warp inst buffers at a given time
system.gpu.shader_cores0.lsq.warpInstBufActive::58        14290      0.00%     99.50% # Histogram of number of active warp inst buffers at a given time
system.gpu.shader_cores0.lsq.warpInstBufActive::59         8574      0.00%     99.51% # Histogram of number of active warp inst buffers at a given time
system.gpu.shader_cores0.lsq.warpInstBufActive::60        11432      0.00%     99.51% # Histogram of number of active warp inst buffers at a given time
system.gpu.shader_cores0.lsq.warpInstBufActive::61       180054      0.03%     99.54% # Histogram of number of active warp inst buffers at a given time
system.gpu.shader_cores0.lsq.warpInstBufActive::62        27151      0.00%     99.54% # Histogram of number of active warp inst buffers at a given time
system.gpu.shader_cores0.lsq.warpInstBufActive::63       208634      0.03%     99.58% # Histogram of number of active warp inst buffers at a given time
system.gpu.shader_cores0.lsq.warpInstBufActive::64      2546478      0.42%    100.00% # Histogram of number of active warp inst buffers at a given time
system.gpu.shader_cores0.lsq.warpInstBufActive::total    602078520                       # Histogram of number of active warp inst buffers at a given time
system.gpu.shader_cores0.lsq.cacheAccesses     0.174930                       # Average number of concurrent outstanding cache accesses
system.gpu.shader_cores0.lsq.writebackBlockedCycles         8285                       # Number of cycles blocked for core writeback stage
system.gpu.shader_cores0.lsq.mshrHitQueued         2285                       # Number of hits on blocked lines in MSHRs
system.gpu.shader_cores0.lsq.mshrsFullCycles            0                       # Number of cycles stalled waiting for an MSHR
system.gpu.shader_cores0.lsq.mshrsFullCount            0                       # Number of times MSHRs filled
system.gpu.shader_cores0.lsq.warpCoalescedAccesses::samples        59310                       # Number of coalesced accesses per warp instruction
system.gpu.shader_cores0.lsq.warpCoalescedAccesses::mean     1.075856                       # Number of coalesced accesses per warp instruction
system.gpu.shader_cores0.lsq.warpCoalescedAccesses::gmean     1.025355                       # Number of coalesced accesses per warp instruction
system.gpu.shader_cores0.lsq.warpCoalescedAccesses::stdev     0.891959                       # Number of coalesced accesses per warp instruction
system.gpu.shader_cores0.lsq.warpCoalescedAccesses::0            0      0.00%      0.00% # Number of coalesced accesses per warp instruction
system.gpu.shader_cores0.lsq.warpCoalescedAccesses::1        58236     98.19%     98.19% # Number of coalesced accesses per warp instruction
system.gpu.shader_cores0.lsq.warpCoalescedAccesses::2          312      0.53%     98.72% # Number of coalesced accesses per warp instruction
system.gpu.shader_cores0.lsq.warpCoalescedAccesses::3          207      0.35%     99.06% # Number of coalesced accesses per warp instruction
system.gpu.shader_cores0.lsq.warpCoalescedAccesses::4          161      0.27%     99.34% # Number of coalesced accesses per warp instruction
system.gpu.shader_cores0.lsq.warpCoalescedAccesses::5          104      0.18%     99.51% # Number of coalesced accesses per warp instruction
system.gpu.shader_cores0.lsq.warpCoalescedAccesses::6           65      0.11%     99.62% # Number of coalesced accesses per warp instruction
system.gpu.shader_cores0.lsq.warpCoalescedAccesses::7           56      0.09%     99.72% # Number of coalesced accesses per warp instruction
system.gpu.shader_cores0.lsq.warpCoalescedAccesses::8           52      0.09%     99.80% # Number of coalesced accesses per warp instruction
system.gpu.shader_cores0.lsq.warpCoalescedAccesses::9           14      0.02%     99.83% # Number of coalesced accesses per warp instruction
system.gpu.shader_cores0.lsq.warpCoalescedAccesses::10            7      0.01%     99.84% # Number of coalesced accesses per warp instruction
system.gpu.shader_cores0.lsq.warpCoalescedAccesses::11           48      0.08%     99.92% # Number of coalesced accesses per warp instruction
system.gpu.shader_cores0.lsq.warpCoalescedAccesses::12            0      0.00%     99.92% # Number of coalesced accesses per warp instruction
system.gpu.shader_cores0.lsq.warpCoalescedAccesses::13            0      0.00%     99.92% # Number of coalesced accesses per warp instruction
system.gpu.shader_cores0.lsq.warpCoalescedAccesses::14            0      0.00%     99.92% # Number of coalesced accesses per warp instruction
system.gpu.shader_cores0.lsq.warpCoalescedAccesses::15            0      0.00%     99.92% # Number of coalesced accesses per warp instruction
system.gpu.shader_cores0.lsq.warpCoalescedAccesses::16            0      0.00%     99.92% # Number of coalesced accesses per warp instruction
system.gpu.shader_cores0.lsq.warpCoalescedAccesses::17            0      0.00%     99.92% # Number of coalesced accesses per warp instruction
system.gpu.shader_cores0.lsq.warpCoalescedAccesses::18            0      0.00%     99.92% # Number of coalesced accesses per warp instruction
system.gpu.shader_cores0.lsq.warpCoalescedAccesses::19            9      0.02%     99.93% # Number of coalesced accesses per warp instruction
system.gpu.shader_cores0.lsq.warpCoalescedAccesses::20            0      0.00%     99.93% # Number of coalesced accesses per warp instruction
system.gpu.shader_cores0.lsq.warpCoalescedAccesses::21            3      0.01%     99.94% # Number of coalesced accesses per warp instruction
system.gpu.shader_cores0.lsq.warpCoalescedAccesses::22            6      0.01%     99.95% # Number of coalesced accesses per warp instruction
system.gpu.shader_cores0.lsq.warpCoalescedAccesses::23            0      0.00%     99.95% # Number of coalesced accesses per warp instruction
system.gpu.shader_cores0.lsq.warpCoalescedAccesses::24            0      0.00%     99.95% # Number of coalesced accesses per warp instruction
system.gpu.shader_cores0.lsq.warpCoalescedAccesses::25            6      0.01%     99.96% # Number of coalesced accesses per warp instruction
system.gpu.shader_cores0.lsq.warpCoalescedAccesses::26            3      0.01%     99.96% # Number of coalesced accesses per warp instruction
system.gpu.shader_cores0.lsq.warpCoalescedAccesses::27            0      0.00%     99.96% # Number of coalesced accesses per warp instruction
system.gpu.shader_cores0.lsq.warpCoalescedAccesses::28            0      0.00%     99.96% # Number of coalesced accesses per warp instruction
system.gpu.shader_cores0.lsq.warpCoalescedAccesses::29            0      0.00%     99.96% # Number of coalesced accesses per warp instruction
system.gpu.shader_cores0.lsq.warpCoalescedAccesses::30            6      0.01%     99.97% # Number of coalesced accesses per warp instruction
system.gpu.shader_cores0.lsq.warpCoalescedAccesses::31           12      0.02%     99.99% # Number of coalesced accesses per warp instruction
system.gpu.shader_cores0.lsq.warpCoalescedAccesses::32            3      0.01%    100.00% # Number of coalesced accesses per warp instruction
system.gpu.shader_cores0.lsq.warpCoalescedAccesses::total        59310                       # Number of coalesced accesses per warp instruction
system.gpu.shader_cores0.lsq.warpLatencyRead::samples        58426                       # Latency in cycles for whole warp to finish the read
system.gpu.shader_cores0.lsq.warpLatencyRead::mean    13.670421                       # Latency in cycles for whole warp to finish the read
system.gpu.shader_cores0.lsq.warpLatencyRead::gmean    11.792534                       # Latency in cycles for whole warp to finish the read
system.gpu.shader_cores0.lsq.warpLatencyRead::stdev    17.468685                       # Latency in cycles for whole warp to finish the read
system.gpu.shader_cores0.lsq.warpLatencyRead::0-63        56790     97.20%     97.20% # Latency in cycles for whole warp to finish the read
system.gpu.shader_cores0.lsq.warpLatencyRead::64-127         1456      2.49%     99.69% # Latency in cycles for whole warp to finish the read
system.gpu.shader_cores0.lsq.warpLatencyRead::128-191          130      0.22%     99.91% # Latency in cycles for whole warp to finish the read
system.gpu.shader_cores0.lsq.warpLatencyRead::192-255           14      0.02%     99.94% # Latency in cycles for whole warp to finish the read
system.gpu.shader_cores0.lsq.warpLatencyRead::256-319           11      0.02%     99.96% # Latency in cycles for whole warp to finish the read
system.gpu.shader_cores0.lsq.warpLatencyRead::320-383            6      0.01%     99.97% # Latency in cycles for whole warp to finish the read
system.gpu.shader_cores0.lsq.warpLatencyRead::384-447           10      0.02%     99.98% # Latency in cycles for whole warp to finish the read
system.gpu.shader_cores0.lsq.warpLatencyRead::448-511            1      0.00%     99.99% # Latency in cycles for whole warp to finish the read
system.gpu.shader_cores0.lsq.warpLatencyRead::512-575            3      0.01%     99.99% # Latency in cycles for whole warp to finish the read
system.gpu.shader_cores0.lsq.warpLatencyRead::576-639            3      0.01%    100.00% # Latency in cycles for whole warp to finish the read
system.gpu.shader_cores0.lsq.warpLatencyRead::640-703            1      0.00%    100.00% # Latency in cycles for whole warp to finish the read
system.gpu.shader_cores0.lsq.warpLatencyRead::704-767            1      0.00%    100.00% # Latency in cycles for whole warp to finish the read
system.gpu.shader_cores0.lsq.warpLatencyRead::768-831            0      0.00%    100.00% # Latency in cycles for whole warp to finish the read
system.gpu.shader_cores0.lsq.warpLatencyRead::832-895            0      0.00%    100.00% # Latency in cycles for whole warp to finish the read
system.gpu.shader_cores0.lsq.warpLatencyRead::896-959            0      0.00%    100.00% # Latency in cycles for whole warp to finish the read
system.gpu.shader_cores0.lsq.warpLatencyRead::960-1023            0      0.00%    100.00% # Latency in cycles for whole warp to finish the read
system.gpu.shader_cores0.lsq.warpLatencyRead::total        58426                       # Latency in cycles for whole warp to finish the read
system.gpu.shader_cores0.lsq.warpLatencyWrite::samples          833                       # Latency in cycles for whole warp to finish the write
system.gpu.shader_cores0.lsq.warpLatencyWrite::mean   368.937575                       # Latency in cycles for whole warp to finish the write
system.gpu.shader_cores0.lsq.warpLatencyWrite::gmean   218.611190                       # Latency in cycles for whole warp to finish the write
system.gpu.shader_cores0.lsq.warpLatencyWrite::stdev   421.011298                       # Latency in cycles for whole warp to finish the write
system.gpu.shader_cores0.lsq.warpLatencyWrite::0-255          522     62.67%     62.67% # Latency in cycles for whole warp to finish the write
system.gpu.shader_cores0.lsq.warpLatencyWrite::256-511           82      9.84%     72.51% # Latency in cycles for whole warp to finish the write
system.gpu.shader_cores0.lsq.warpLatencyWrite::512-767           86     10.32%     82.83% # Latency in cycles for whole warp to finish the write
system.gpu.shader_cores0.lsq.warpLatencyWrite::768-1023           63      7.56%     90.40% # Latency in cycles for whole warp to finish the write
system.gpu.shader_cores0.lsq.warpLatencyWrite::1024-1279           55      6.60%     97.00% # Latency in cycles for whole warp to finish the write
system.gpu.shader_cores0.lsq.warpLatencyWrite::1280-1535           10      1.20%     98.20% # Latency in cycles for whole warp to finish the write
system.gpu.shader_cores0.lsq.warpLatencyWrite::1536-1791            5      0.60%     98.80% # Latency in cycles for whole warp to finish the write
system.gpu.shader_cores0.lsq.warpLatencyWrite::1792-2047            2      0.24%     99.04% # Latency in cycles for whole warp to finish the write
system.gpu.shader_cores0.lsq.warpLatencyWrite::2048-2303            5      0.60%     99.64% # Latency in cycles for whole warp to finish the write
system.gpu.shader_cores0.lsq.warpLatencyWrite::2304-2559            1      0.12%     99.76% # Latency in cycles for whole warp to finish the write
system.gpu.shader_cores0.lsq.warpLatencyWrite::2560-2815            1      0.12%     99.88% # Latency in cycles for whole warp to finish the write
system.gpu.shader_cores0.lsq.warpLatencyWrite::2816-3071            1      0.12%    100.00% # Latency in cycles for whole warp to finish the write
system.gpu.shader_cores0.lsq.warpLatencyWrite::3072-3327            0      0.00%    100.00% # Latency in cycles for whole warp to finish the write
system.gpu.shader_cores0.lsq.warpLatencyWrite::3328-3583            0      0.00%    100.00% # Latency in cycles for whole warp to finish the write
system.gpu.shader_cores0.lsq.warpLatencyWrite::3584-3839            0      0.00%    100.00% # Latency in cycles for whole warp to finish the write
system.gpu.shader_cores0.lsq.warpLatencyWrite::3840-4095            0      0.00%    100.00% # Latency in cycles for whole warp to finish the write
system.gpu.shader_cores0.lsq.warpLatencyWrite::total          833                       # Latency in cycles for whole warp to finish the write
system.gpu.shader_cores0.lsq.warpLatencyFence::samples          572                       # Latency in cycles for whole warp to finish the fence
system.gpu.shader_cores0.lsq.warpLatencyFence::mean    45.162587                       # Latency in cycles for whole warp to finish the fence
system.gpu.shader_cores0.lsq.warpLatencyFence::gmean     6.883404                       # Latency in cycles for whole warp to finish the fence
system.gpu.shader_cores0.lsq.warpLatencyFence::stdev   285.544056                       # Latency in cycles for whole warp to finish the fence
system.gpu.shader_cores0.lsq.warpLatencyFence::0-255          560     97.90%     97.90% # Latency in cycles for whole warp to finish the fence
system.gpu.shader_cores0.lsq.warpLatencyFence::256-511            1      0.17%     98.08% # Latency in cycles for whole warp to finish the fence
system.gpu.shader_cores0.lsq.warpLatencyFence::512-767            1      0.17%     98.25% # Latency in cycles for whole warp to finish the fence
system.gpu.shader_cores0.lsq.warpLatencyFence::768-1023            0      0.00%     98.25% # Latency in cycles for whole warp to finish the fence
system.gpu.shader_cores0.lsq.warpLatencyFence::1024-1279            2      0.35%     98.60% # Latency in cycles for whole warp to finish the fence
system.gpu.shader_cores0.lsq.warpLatencyFence::1280-1535            0      0.00%     98.60% # Latency in cycles for whole warp to finish the fence
system.gpu.shader_cores0.lsq.warpLatencyFence::1536-1791            1      0.17%     98.78% # Latency in cycles for whole warp to finish the fence
system.gpu.shader_cores0.lsq.warpLatencyFence::1792-2047            0      0.00%     98.78% # Latency in cycles for whole warp to finish the fence
system.gpu.shader_cores0.lsq.warpLatencyFence::2048-2303            4      0.70%     99.48% # Latency in cycles for whole warp to finish the fence
system.gpu.shader_cores0.lsq.warpLatencyFence::2304-2559            1      0.17%     99.65% # Latency in cycles for whole warp to finish the fence
system.gpu.shader_cores0.lsq.warpLatencyFence::2560-2815            1      0.17%     99.83% # Latency in cycles for whole warp to finish the fence
system.gpu.shader_cores0.lsq.warpLatencyFence::2816-3071            1      0.17%    100.00% # Latency in cycles for whole warp to finish the fence
system.gpu.shader_cores0.lsq.warpLatencyFence::3072-3327            0      0.00%    100.00% # Latency in cycles for whole warp to finish the fence
system.gpu.shader_cores0.lsq.warpLatencyFence::3328-3583            0      0.00%    100.00% # Latency in cycles for whole warp to finish the fence
system.gpu.shader_cores0.lsq.warpLatencyFence::3584-3839            0      0.00%    100.00% # Latency in cycles for whole warp to finish the fence
system.gpu.shader_cores0.lsq.warpLatencyFence::3840-4095            0      0.00%    100.00% # Latency in cycles for whole warp to finish the fence
system.gpu.shader_cores0.lsq.warpLatencyFence::total          572                       # Latency in cycles for whole warp to finish the fence
system.gpu.shader_cores0.lsq.warpLatencyAtomic::samples           51                       # Latency in cycles for whole warp to finish the atomic
system.gpu.shader_cores0.lsq.warpLatencyAtomic::mean 19510.137255                       # Latency in cycles for whole warp to finish the atomic
system.gpu.shader_cores0.lsq.warpLatencyAtomic::gmean 11682.359395                       # Latency in cycles for whole warp to finish the atomic
system.gpu.shader_cores0.lsq.warpLatencyAtomic::stdev 12472.738697                       # Latency in cycles for whole warp to finish the atomic
system.gpu.shader_cores0.lsq.warpLatencyAtomic::0-4095            7     13.73%     13.73% # Latency in cycles for whole warp to finish the atomic
system.gpu.shader_cores0.lsq.warpLatencyAtomic::4096-8191            5      9.80%     23.53% # Latency in cycles for whole warp to finish the atomic
system.gpu.shader_cores0.lsq.warpLatencyAtomic::8192-12287            5      9.80%     33.33% # Latency in cycles for whole warp to finish the atomic
system.gpu.shader_cores0.lsq.warpLatencyAtomic::12288-16383            5      9.80%     43.14% # Latency in cycles for whole warp to finish the atomic
system.gpu.shader_cores0.lsq.warpLatencyAtomic::16384-20479            5      9.80%     52.94% # Latency in cycles for whole warp to finish the atomic
system.gpu.shader_cores0.lsq.warpLatencyAtomic::20480-24575            5      9.80%     62.75% # Latency in cycles for whole warp to finish the atomic
system.gpu.shader_cores0.lsq.warpLatencyAtomic::24576-28671            4      7.84%     70.59% # Latency in cycles for whole warp to finish the atomic
system.gpu.shader_cores0.lsq.warpLatencyAtomic::28672-32767            5      9.80%     80.39% # Latency in cycles for whole warp to finish the atomic
system.gpu.shader_cores0.lsq.warpLatencyAtomic::32768-36863            5      9.80%     90.20% # Latency in cycles for whole warp to finish the atomic
system.gpu.shader_cores0.lsq.warpLatencyAtomic::36864-40959            5      9.80%    100.00% # Latency in cycles for whole warp to finish the atomic
system.gpu.shader_cores0.lsq.warpLatencyAtomic::40960-45055            0      0.00%    100.00% # Latency in cycles for whole warp to finish the atomic
system.gpu.shader_cores0.lsq.warpLatencyAtomic::45056-49151            0      0.00%    100.00% # Latency in cycles for whole warp to finish the atomic
system.gpu.shader_cores0.lsq.warpLatencyAtomic::49152-53247            0      0.00%    100.00% # Latency in cycles for whole warp to finish the atomic
system.gpu.shader_cores0.lsq.warpLatencyAtomic::53248-57343            0      0.00%    100.00% # Latency in cycles for whole warp to finish the atomic
system.gpu.shader_cores0.lsq.warpLatencyAtomic::57344-61439            0      0.00%    100.00% # Latency in cycles for whole warp to finish the atomic
system.gpu.shader_cores0.lsq.warpLatencyAtomic::61440-65535            0      0.00%    100.00% # Latency in cycles for whole warp to finish the atomic
system.gpu.shader_cores0.lsq.warpLatencyAtomic::total           51                       # Latency in cycles for whole warp to finish the atomic
system.gpu.shader_cores0.lsq.tlbMissLatency::samples            0                       # Latency in cycles for TLB miss
system.gpu.shader_cores0.lsq.tlbMissLatency::mean          nan                       # Latency in cycles for TLB miss
system.gpu.shader_cores0.lsq.tlbMissLatency::gmean          nan                       # Latency in cycles for TLB miss
system.gpu.shader_cores0.lsq.tlbMissLatency::stdev          nan                       # Latency in cycles for TLB miss
system.gpu.shader_cores0.lsq.tlbMissLatency::0            0                       # Latency in cycles for TLB miss
system.gpu.shader_cores0.lsq.tlbMissLatency::1            0                       # Latency in cycles for TLB miss
system.gpu.shader_cores0.lsq.tlbMissLatency::2            0                       # Latency in cycles for TLB miss
system.gpu.shader_cores0.lsq.tlbMissLatency::3            0                       # Latency in cycles for TLB miss
system.gpu.shader_cores0.lsq.tlbMissLatency::4            0                       # Latency in cycles for TLB miss
system.gpu.shader_cores0.lsq.tlbMissLatency::5            0                       # Latency in cycles for TLB miss
system.gpu.shader_cores0.lsq.tlbMissLatency::6            0                       # Latency in cycles for TLB miss
system.gpu.shader_cores0.lsq.tlbMissLatency::7            0                       # Latency in cycles for TLB miss
system.gpu.shader_cores0.lsq.tlbMissLatency::8            0                       # Latency in cycles for TLB miss
system.gpu.shader_cores0.lsq.tlbMissLatency::9            0                       # Latency in cycles for TLB miss
system.gpu.shader_cores0.lsq.tlbMissLatency::10            0                       # Latency in cycles for TLB miss
system.gpu.shader_cores0.lsq.tlbMissLatency::11            0                       # Latency in cycles for TLB miss
system.gpu.shader_cores0.lsq.tlbMissLatency::12            0                       # Latency in cycles for TLB miss
system.gpu.shader_cores0.lsq.tlbMissLatency::13            0                       # Latency in cycles for TLB miss
system.gpu.shader_cores0.lsq.tlbMissLatency::14            0                       # Latency in cycles for TLB miss
system.gpu.shader_cores0.lsq.tlbMissLatency::15            0                       # Latency in cycles for TLB miss
system.gpu.shader_cores0.lsq.tlbMissLatency::total            0                       # Latency in cycles for TLB miss
system.gpu.shader_cores1.itb.hits                   0                       # Number of hits in this TLB
system.gpu.shader_cores1.itb.misses                 0                       # Number of misses in this TLB
system.gpu.shader_cores1.itb.hitRate              nan                       # Hit rate for this TLB
system.gpu.shader_cores1.local_loads                0                       # Number of loads from local space
system.gpu.shader_cores1.local_stores               0                       # Number of stores to local space
system.gpu.shader_cores1.shared_loads          283597                       # Number of loads from shared space
system.gpu.shader_cores1.shared_stores          27237                       # Number of stores to shared space
system.gpu.shader_cores1.param_kernel_loads       576029                       # Number of loads from kernel parameter space
system.gpu.shader_cores1.param_local_loads            0                       # Number of loads from local parameter space
[...]
system.ruby.GPUCopyDMA_Controller.BUSY_WR.Ack          423      0.00%      0.00%
system.ruby.Directory_Controller.GETX            1373      0.00%      0.00%
system.ruby.Directory_Controller.GETS            1528      0.00%      0.00%
system.ruby.Directory_Controller.UnblockS            3      0.00%      0.00%
system.ruby.Directory_Controller.UnblockM         2897      0.00%      0.00%
system.ruby.Directory_Controller.DMA_READ          424      0.00%      0.00%
system.ruby.Directory_Controller.DMA_WRITE          423      0.00%      0.00%
system.ruby.Directory_Controller.Memory_Data         2849      0.00%      0.00%
system.ruby.Directory_Controller.Memory_Ack          841      0.00%      0.00%
system.ruby.Directory_Controller.Ack             2097      0.00%      0.00%
system.ruby.Directory_Controller.Shared_Data            6      0.00%      0.00%
system.ruby.Directory_Controller.Data               6      0.00%      0.00%
system.ruby.Directory_Controller.Exclusive_Data          432      0.00%      0.00%
system.ruby.Directory_Controller.All_acks_and_shared_data            6      0.00%      0.00%
system.ruby.Directory_Controller.All_acks_and_data_no_sharers          841      0.00%      0.00%
system.ruby.Directory_Controller.NO.GETX           43      0.00%      0.00%
system.ruby.Directory_Controller.NO.GETS            9      0.00%      0.00%
system.ruby.Directory_Controller.NO.DMA_READ          424      0.00%      0.00%
system.ruby.Directory_Controller.NO.DMA_WRITE           14      0.00%      0.00%
system.ruby.Directory_Controller.S.DMA_WRITE            6      0.00%      0.00%
system.ruby.Directory_Controller.E.GETX          1330      0.00%      0.00%
system.ruby.Directory_Controller.E.GETS          1519      0.00%      0.00%
system.ruby.Directory_Controller.E.DMA_WRITE          403      0.00%      0.00%
system.ruby.Directory_Controller.NO_B.UnblockS            3      0.00%      0.00%
system.ruby.Directory_Controller.NO_B.UnblockM         2897      0.00%      0.00%
system.ruby.Directory_Controller.NO_B_W.Memory_Data         2849      0.00%      0.00%
system.ruby.Directory_Controller.NO_DW_B_W.Ack         1249      0.00%      0.00%
system.ruby.Directory_Controller.NO_DW_B_W.Data            6      0.00%      0.00%
system.ruby.Directory_Controller.NO_DW_B_W.Exclusive_Data           14      0.00%      0.00%
system.ruby.Directory_Controller.NO_DW_B_W.All_acks_and_data_no_sharers          423      0.00%      0.00%
system.ruby.Directory_Controller.NO_DR_B_D.Ack          848      0.00%      0.00%
system.ruby.Directory_Controller.NO_DR_B_D.Shared_Data            6      0.00%      0.00%
system.ruby.Directory_Controller.NO_DR_B_D.Exclusive_Data          418      0.00%      0.00%
system.ruby.Directory_Controller.NO_DR_B_D.All_acks_and_shared_data            6      0.00%      0.00%
system.ruby.Directory_Controller.NO_DR_B_D.All_acks_and_data_no_sharers          418      0.00%      0.00%
system.ruby.Directory_Controller.NO_DW_W.Memory_Ack          423      0.00%      0.00%
system.ruby.Directory_Controller.WB_E_W.Memory_Ack          418      0.00%      0.00%
system.ruby.L1Cache_Controller.Load      |      307151    100.00%    100.00% |           0      0.00%    100.00%
system.ruby.L1Cache_Controller.Load::total       307151                      
system.ruby.L1Cache_Controller.Ifetch    |     2360978    100.00%    100.00% |           0      0.00%    100.00%
system.ruby.L1Cache_Controller.Ifetch::total      2360978                      
system.ruby.L1Cache_Controller.Store     |      170839    100.00%    100.00% |           0      0.00%    100.00%
system.ruby.L1Cache_Controller.Store::total       170839                      
system.ruby.L1Cache_Controller.L1_to_L2  |        2083    100.00%    100.00% |           0      0.00%    100.00%
system.ruby.L1Cache_Controller.L1_to_L2::total         2083                      
system.ruby.L1Cache_Controller.Trigger_L2_to_L1D |         755    100.00%    100.00% |           0      0.00%    100.00%
system.ruby.L1Cache_Controller.Trigger_L2_to_L1D::total          755                      
system.ruby.L1Cache_Controller.Trigger_L2_to_L1I |         536    100.00%    100.00% |           0      0.00%    100.00%
system.ruby.L1Cache_Controller.Trigger_L2_to_L1I::total          536                      
system.ruby.L1Cache_Controller.Complete_L2_to_L1 |        1291    100.00%    100.00% |           0      0.00%    100.00%
system.ruby.L1Cache_Controller.Complete_L2_to_L1::total         1291                      
system.ruby.L1Cache_Controller.Other_GETX |        1423     44.21%     44.21% |        1796     55.79%    100.00%
system.ruby.L1Cache_Controller.Other_GETX::total         3219                      
system.ruby.L1Cache_Controller.Other_GETS |         730     27.22%     27.22% |        1952     72.78%    100.00%
system.ruby.L1Cache_Controller.Other_GETS::total         2682                      
system.ruby.L1Cache_Controller.Ack       |        3184    100.00%    100.00% |           0      0.00%    100.00%
system.ruby.L1Cache_Controller.Ack::total         3184                      
system.ruby.L1Cache_Controller.Exclusive_Data |        1595    100.00%    100.00% |           0      0.00%    100.00%
system.ruby.L1Cache_Controller.Exclusive_Data::total         1595                      
system.ruby.L1Cache_Controller.All_acks_no_sharers |        1595    100.00%    100.00% |           0      0.00%    100.00%
system.ruby.L1Cache_Controller.All_acks_no_sharers::total         1595                      
system.ruby.L1Cache_Controller.I.Load    |         664    100.00%    100.00% |           0      0.00%    100.00%
system.ruby.L1Cache_Controller.I.Load::total          664                      
system.ruby.L1Cache_Controller.I.Ifetch  |         558    100.00%    100.00% |           0      0.00%    100.00%
system.ruby.L1Cache_Controller.I.Ifetch::total          558                      
system.ruby.L1Cache_Controller.I.Store   |         373    100.00%    100.00% |           0      0.00%    100.00%
system.ruby.L1Cache_Controller.I.Store::total          373                      
system.ruby.L1Cache_Controller.I.Other_GETX |        1360     43.09%     43.09% |        1796     56.91%    100.00%
system.ruby.L1Cache_Controller.I.Other_GETX::total         3156                      
system.ruby.L1Cache_Controller.I.Other_GETS |         496     20.26%     20.26% |        1952     79.74%    100.00%
system.ruby.L1Cache_Controller.I.Other_GETS::total         2448                      
system.ruby.L1Cache_Controller.O.Load    |           6    100.00%    100.00% |           0      0.00%    100.00%
system.ruby.L1Cache_Controller.O.Load::total            6                      
system.ruby.L1Cache_Controller.O.Other_GETX |           6    100.00%    100.00% |           0      0.00%    100.00%
system.ruby.L1Cache_Controller.O.Other_GETX::total            6                      
system.ruby.L1Cache_Controller.M.Load    |      125529    100.00%    100.00% |           0      0.00%    100.00%
system.ruby.L1Cache_Controller.M.Load::total       125529                      
system.ruby.L1Cache_Controller.M.Ifetch  |     2359884    100.00%    100.00% |           0      0.00%    100.00%
system.ruby.L1Cache_Controller.M.Ifetch::total      2359884                      
system.ruby.L1Cache_Controller.M.Store   |          41    100.00%    100.00% |           0      0.00%    100.00%
system.ruby.L1Cache_Controller.M.Store::total           41                      
system.ruby.L1Cache_Controller.M.L1_to_L2 |        1735    100.00%    100.00% |           0      0.00%    100.00%
system.ruby.L1Cache_Controller.M.L1_to_L2::total         1735                      
system.ruby.L1Cache_Controller.M.Trigger_L2_to_L1D |         642    100.00%    100.00% |           0      0.00%    100.00%
system.ruby.L1Cache_Controller.M.Trigger_L2_to_L1D::total          642                      
system.ruby.L1Cache_Controller.M.Trigger_L2_to_L1I |         536    100.00%    100.00% |           0      0.00%    100.00%
system.ruby.L1Cache_Controller.M.Trigger_L2_to_L1I::total          536                      
system.ruby.L1Cache_Controller.M.Other_GETX |          47    100.00%    100.00% |           0      0.00%    100.00%
system.ruby.L1Cache_Controller.M.Other_GETX::total           47                      
system.ruby.L1Cache_Controller.M.Other_GETS |           9    100.00%    100.00% |           0      0.00%    100.00%
system.ruby.L1Cache_Controller.M.Other_GETS::total            9                      
system.ruby.L1Cache_Controller.MM.Load   |      180257    100.00%    100.00% |           0      0.00%    100.00%
system.ruby.L1Cache_Controller.MM.Load::total       180257                      
system.ruby.L1Cache_Controller.MM.Store  |      170365    100.00%    100.00% |           0      0.00%    100.00%
system.ruby.L1Cache_Controller.MM.Store::total       170365                      
system.ruby.L1Cache_Controller.MM.L1_to_L2 |         348    100.00%    100.00% |           0      0.00%    100.00%
system.ruby.L1Cache_Controller.MM.L1_to_L2::total          348                      
system.ruby.L1Cache_Controller.MM.Trigger_L2_to_L1D |         113    100.00%    100.00% |           0      0.00%    100.00%
system.ruby.L1Cache_Controller.MM.Trigger_L2_to_L1D::total          113                      
system.ruby.L1Cache_Controller.MM.Other_GETX |          10    100.00%    100.00% |           0      0.00%    100.00%
system.ruby.L1Cache_Controller.MM.Other_GETX::total           10                      
system.ruby.L1Cache_Controller.MM.Other_GETS |         225    100.00%    100.00% |           0      0.00%    100.00%
system.ruby.L1Cache_Controller.MM.Other_GETS::total          225                      
system.ruby.L1Cache_Controller.MR.Load   |         641    100.00%    100.00% |           0      0.00%    100.00%
system.ruby.L1Cache_Controller.MR.Load::total          641                      
system.ruby.L1Cache_Controller.MR.Ifetch |         536    100.00%    100.00% |           0      0.00%    100.00%
system.ruby.L1Cache_Controller.MR.Ifetch::total          536                      
system.ruby.L1Cache_Controller.MR.Store  |           1    100.00%    100.00% |           0      0.00%    100.00%
system.ruby.L1Cache_Controller.MR.Store::total            1                      
system.ruby.L1Cache_Controller.MMR.Load  |          54    100.00%    100.00% |           0      0.00%    100.00%
system.ruby.L1Cache_Controller.MMR.Load::total           54                      
system.ruby.L1Cache_Controller.MMR.Store |          59    100.00%    100.00% |           0      0.00%    100.00%
system.ruby.L1Cache_Controller.MMR.Store::total           59                      
system.ruby.L1Cache_Controller.IM.Ack    |         746    100.00%    100.00% |           0      0.00%    100.00%
system.ruby.L1Cache_Controller.IM.Ack::total          746                      
system.ruby.L1Cache_Controller.IM.Exclusive_Data |         373    100.00%    100.00% |           0      0.00%    100.00%
system.ruby.L1Cache_Controller.IM.Exclusive_Data::total          373                      
system.ruby.L1Cache_Controller.M_W.All_acks_no_sharers |        1222    100.00%    100.00% |           0      0.00%    100.00%
system.ruby.L1Cache_Controller.M_W.All_acks_no_sharers::total         1222                      
system.ruby.L1Cache_Controller.MM_W.All_acks_no_sharers |         373    100.00%    100.00% |           0      0.00%    100.00%
system.ruby.L1Cache_Controller.MM_W.All_acks_no_sharers::total          373                      
system.ruby.L1Cache_Controller.IS.Ack    |        2438    100.00%    100.00% |           0      0.00%    100.00%
system.ruby.L1Cache_Controller.IS.Ack::total         2438                      
system.ruby.L1Cache_Controller.IS.Exclusive_Data |        1222    100.00%    100.00% |           0      0.00%    100.00%
system.ruby.L1Cache_Controller.IS.Exclusive_Data::total         1222                      
system.ruby.L1Cache_Controller.MT.Complete_L2_to_L1 |        1178    100.00%    100.00% |           0      0.00%    100.00%
system.ruby.L1Cache_Controller.MT.Complete_L2_to_L1::total         1178                      
system.ruby.L1Cache_Controller.MMT.Complete_L2_to_L1 |         113    100.00%    100.00% |           0      0.00%    100.00%
system.ruby.L1Cache_Controller.MMT.Complete_L2_to_L1::total          113                      
system.ruby.GPUL1Cache_Controller.Load   |       60997     28.10%     28.10% |       49126     22.63%     50.73% |       46279     21.32%     72.06% |       60656     27.94%    100.00%
system.ruby.GPUL1Cache_Controller.Load::total       217058                      
system.ruby.GPUL1Cache_Controller.Ifetch |          50     19.69%     19.69% |          58     22.83%     42.52% |          81     31.89%     74.41% |          65     25.59%    100.00%
system.ruby.GPUL1Cache_Controller.Ifetch::total          254                      
system.ruby.GPUL1Cache_Controller.Store  |        2281     21.85%     21.85% |        2440     23.38%     45.23% |        2814     26.96%     72.20% |        2902     27.80%    100.00%
system.ruby.GPUL1Cache_Controller.Store::total        10437                      
system.ruby.GPUL1Cache_Controller.Atomic |         531     11.61%     11.61% |         531     11.61%     23.22% |        1782     38.96%     62.18% |        1730     37.82%    100.00%
system.ruby.GPUL1Cache_Controller.Atomic::total         4574                      
system.ruby.GPUL1Cache_Controller.Data   |        1356     17.59%     17.59% |        1931     25.05%     42.63% |        2543     32.98%     75.62% |        1880     24.38%    100.00%
system.ruby.GPUL1Cache_Controller.Data::total         7710                      
system.ruby.GPUL1Cache_Controller.Replacement |         706     16.09%     16.09% |        1207     27.51%     43.61% |        1566     35.70%     79.30% |         908     20.70%    100.00%
system.ruby.GPUL1Cache_Controller.Replacement::total         4387                      
system.ruby.GPUL1Cache_Controller.Write_Ack |        2812     18.73%     18.73% |        2971     19.79%     38.53% |        4596     30.62%     69.14% |        4632     30.86%    100.00%
system.ruby.GPUL1Cache_Controller.Write_Ack::total        15011                      
system.ruby.GPUL1Cache_Controller.I.Load |        1306     17.52%     17.52% |        1873     25.12%     42.64% |        2462     33.02%     75.66% |        1815     24.34%    100.00%
system.ruby.GPUL1Cache_Controller.I.Load::total         7456                      
system.ruby.GPUL1Cache_Controller.I.Ifetch |          50     19.69%     19.69% |          58     22.83%     42.52% |          81     31.89%     74.41% |          65     25.59%    100.00%
system.ruby.GPUL1Cache_Controller.I.Ifetch::total          254                      
system.ruby.GPUL1Cache_Controller.I.Store |        1968     22.47%     22.47% |        2062     23.54%     46.02% |        2265     25.86%     71.88% |        2463     28.12%    100.00%
system.ruby.GPUL1Cache_Controller.I.Store::total         8758                      
system.ruby.GPUL1Cache_Controller.I.Atomic |         530     12.62%     12.62% |         530     12.62%     25.24% |        1594     37.95%     63.19% |        1546     36.81%    100.00%
system.ruby.GPUL1Cache_Controller.I.Atomic::total         4200                      
system.ruby.GPUL1Cache_Controller.V.Load |       59691     28.48%     28.48% |       47253     22.54%     51.02% |       43817     20.90%     71.93% |       58841     28.07%    100.00%
system.ruby.GPUL1Cache_Controller.V.Load::total       209602                      
system.ruby.GPUL1Cache_Controller.V.Store |         313     18.64%     18.64% |         378     22.51%     41.16% |         549     32.70%     73.85% |         439     26.15%    100.00%
system.ruby.GPUL1Cache_Controller.V.Store::total         1679                      
system.ruby.GPUL1Cache_Controller.V.Atomic |           1      0.27%      0.27% |           1      0.27%      0.53% |         188     50.27%     50.80% |         184     49.20%    100.00%
system.ruby.GPUL1Cache_Controller.V.Atomic::total          374                      
system.ruby.GPUL1Cache_Controller.V.Replacement |         706     16.09%     16.09% |        1207     27.51%     43.61% |        1566     35.70%     79.30% |         908     20.70%    100.00%
system.ruby.GPUL1Cache_Controller.V.Replacement::total         4387                      
system.ruby.GPUL1Cache_Controller.IA.Write_Ack |        2281     21.85%     21.85% |        2440     23.38%     45.23% |        2814     26.96%     72.20% |        2902     27.80%    100.00%
system.ruby.GPUL1Cache_Controller.IA.Write_Ack::total        10437                      
system.ruby.GPUL1Cache_Controller.IV.Data |        1356     17.59%     17.59% |        1931     25.05%     42.63% |        2543     32.98%     75.62% |        1880     24.38%    100.00%
system.ruby.GPUL1Cache_Controller.IV.Data::total         7710                      
system.ruby.GPUL1Cache_Controller.I_a.Write_Ack |         531     11.61%     11.61% |         531     11.61%     23.22% |        1782     38.96%     62.18% |        1730     37.82%    100.00%
system.ruby.GPUL1Cache_Controller.I_a.Write_Ack::total         4574                      
system.ruby.GPUL2Cache_Controller.Get            7863      0.00%      0.00%
system.ruby.GPUL2Cache_Controller.Store         15015      0.00%      0.00%
system.ruby.GPUL2Cache_Controller.Other_GETX          796      0.00%      0.00%
system.ruby.GPUL2Cache_Controller.Other_GETS         1646      0.00%      0.00%
system.ruby.GPUL2Cache_Controller.Ack            2566      0.00%      0.00%
system.ruby.GPUL2Cache_Controller.Shared_Data            3      0.00%      0.00%
system.ruby.GPUL2Cache_Controller.Exclusive_Data         1303      0.00%      0.00%
system.ruby.GPUL2Cache_Controller.All_acks            3      0.00%      0.00%
system.ruby.GPUL2Cache_Controller.All_acks_no_sharers         1303      0.00%      0.00%
system.ruby.GPUL2Cache_Controller.I.Get           306      0.00%      0.00%
system.ruby.GPUL2Cache_Controller.I.Store         1000      0.00%      0.00%
system.ruby.GPUL2Cache_Controller.I.Other_GETX          796      0.00%      0.00%
system.ruby.GPUL2Cache_Controller.I.Other_GETS         1447      0.00%      0.00%
system.ruby.GPUL2Cache_Controller.S.Get             1      0.00%      0.00%
system.ruby.GPUL2Cache_Controller.M.Get          2930      0.00%      0.00%
system.ruby.GPUL2Cache_Controller.M.Store          192      0.00%      0.00%
system.ruby.GPUL2Cache_Controller.MM.Get         4320      0.00%      0.00%
system.ruby.GPUL2Cache_Controller.MM.Store        13815      0.00%      0.00%
system.ruby.GPUL2Cache_Controller.MM.Other_GETS          199      0.00%      0.00%
system.ruby.GPUL2Cache_Controller.IM.Store            4      0.00%      0.00%
system.ruby.GPUL2Cache_Controller.IM.Ack         1882      0.00%      0.00%
system.ruby.GPUL2Cache_Controller.IM.Exclusive_Data         1000      0.00%      0.00%
system.ruby.GPUL2Cache_Controller.IS.Get          153      0.00%      0.00%
system.ruby.GPUL2Cache_Controller.IS.Ack          609      0.00%      0.00%
system.ruby.GPUL2Cache_Controller.IS.Shared_Data            3      0.00%      0.00%
system.ruby.GPUL2Cache_Controller.IS.Exclusive_Data          303      0.00%      0.00%
system.ruby.GPUL2Cache_Controller.SS.Get            3      0.00%      0.00%
system.ruby.GPUL2Cache_Controller.SS.All_acks            3      0.00%      0.00%
system.ruby.GPUL2Cache_Controller.M_W.Get          150      0.00%      0.00%
system.ruby.GPUL2Cache_Controller.M_W.All_acks_no_sharers          303      0.00%      0.00%
system.ruby.GPUL2Cache_Controller.MM_W.Store            4      0.00%      0.00%
system.ruby.GPUL2Cache_Controller.MM_W.Ack           75      0.00%      0.00%
system.ruby.GPUL2Cache_Controller.MM_W.All_acks_no_sharers         1000      0.00%      0.00%

---------- End Simulation Statistics   ----------
