
---------- Begin Simulation Statistics ----------
sim_seconds                                  0.005464                       # Number of seconds simulated
sim_ticks                                  5464307500                       # Number of ticks simulated
final_tick                                 5464307500                       # Number of ticks from beginning of simulation (restored from checkpoints and never reset)
sim_freq                                 1000000000000                       # Frequency of simulated ticks
host_inst_rate                                  17753                       # Simulator instruction rate (inst/s)
host_op_rate                                    29210                       # Simulator op (including micro ops) rate (op/s)
host_tick_rate                               58601255                       # Simulator tick rate (ticks/s)
host_mem_usage                                2447196                       # Number of bytes of host memory used
host_seconds                                    93.25                       # Real time elapsed on the host
sim_insts                                     1655366                       # Number of instructions simulated
sim_ops                                       2723663                       # Number of ops (including micro ops) simulated
system.voltage_domain.voltage                       1                       # Voltage in Volts
system.clk_domain.clock                          1000                       # Clock period in ticks
system.mem_ctrls.bytes_read::writebacks         44920                       # Number of bytes read from this memory
system.mem_ctrls.bytes_read::gpu.shader_cores0.data      2046144                       # Number of bytes read from this memory
system.mem_ctrls.bytes_read::gpu.shader_cores0.inst         1320                       # Number of bytes read from this memory
system.mem_ctrls.bytes_read::gpu.shader_cores1.data      1685536                       # Number of bytes read from this memory
system.mem_ctrls.bytes_read::gpu.shader_cores1.inst         1392                       # Number of bytes read from this memory
system.mem_ctrls.bytes_read::gpu.shader_cores2.data      1631456                       # Number of bytes read from this memory
system.mem_ctrls.bytes_read::gpu.shader_cores2.inst         1648                       # Number of bytes read from this memory
system.mem_ctrls.bytes_read::gpu.shader_cores3.data      2080384                       # Number of bytes read from this memory
system.mem_ctrls.bytes_read::gpu.shader_cores3.inst         1552                       # Number of bytes read from this memory
system.mem_ctrls.bytes_read::gpu.ce             53252                       # Number of bytes read from this memory
system.mem_ctrls.bytes_read::cpu.inst        18887176                       # Number of bytes read from this memory
system.mem_ctrls.bytes_read::cpu.data         2308460                       # Number of bytes read from this memory
system.mem_ctrls.bytes_read::total           28743240                       # Number of bytes read from this memory
system.mem_ctrls.bytes_inst_read::gpu.shader_cores0.inst         1320                       # Number of instructions bytes read from this memory
system.mem_ctrls.bytes_inst_read::gpu.shader_cores1.inst         1392                       # Number of instructions bytes read from this memory
system.mem_ctrls.bytes_inst_read::gpu.shader_cores2.inst         1648                       # Number of instructions bytes read from this memory
system.mem_ctrls.bytes_inst_read::gpu.shader_cores3.inst         1552                       # Number of instructions bytes read from this memory
system.mem_ctrls.bytes_inst_read::cpu.inst     18887176                       # Number of instructions bytes read from this memory
system.mem_ctrls.bytes_inst_read::total      18893088                       # Number of instructions bytes read from this memory
system.mem_ctrls.bytes_written::writebacks        44920                       # Number of bytes written to this memory
system.mem_ctrls.bytes_written::gpu.shader_cores0.data        34292                       # Number of bytes written to this memory
system.mem_ctrls.bytes_written::gpu.shader_cores1.data        34572                       # Number of bytes written to this memory
system.mem_ctrls.bytes_written::gpu.shader_cores2.data        64148                       # Number of bytes written to this memory
system.mem_ctrls.bytes_written::gpu.shader_cores3.data        36768                       # Number of bytes written to this memory
system.mem_ctrls.bytes_written::gpu.ce          53252                       # Number of bytes written to this memory
system.mem_ctrls.bytes_written::cpu.data      1152852                       # Number of bytes written to this memory
system.mem_ctrls.bytes_written::total         1420804                       # Number of bytes written to this memory
system.mem_ctrls.num_reads::writebacks          11230                       # Number of read requests responded to by this memory
system.mem_ctrls.num_reads::gpu.shader_cores0.data        60973                       # Number of read requests responded to by this memory
system.mem_ctrls.num_reads::gpu.shader_cores0.inst           55                       # Number of read requests responded to by this memory
system.mem_ctrls.num_reads::gpu.shader_cores1.data        49203                       # Number of read requests responded to by this memory
system.mem_ctrls.num_reads::gpu.shader_cores1.inst           58                       # Number of read requests responded to by this memory
system.mem_ctrls.num_reads::gpu.shader_cores2.data        46276                       # Number of read requests responded to by this memory
system.mem_ctrls.num_reads::gpu.shader_cores2.inst           69                       # Number of read requests responded to by this memory
system.mem_ctrls.num_reads::gpu.shader_cores3.data        60358                       # Number of read requests responded to by this memory
system.mem_ctrls.num_reads::gpu.shader_cores3.inst           65                       # Number of read requests responded to by this memory
system.mem_ctrls.num_reads::gpu.ce                424                       # Number of read requests responded to by this memory
system.mem_ctrls.num_reads::cpu.inst          2360897                       # Number of read requests responded to by this memory
system.mem_ctrls.num_reads::cpu.data           312512                       # Number of read requests responded to by this memory
system.mem_ctrls.num_reads::total             2902120                       # Number of read requests responded to by this memory
system.mem_ctrls.num_writes::writebacks         11230                       # Number of write requests responded to by this memory
system.mem_ctrls.num_writes::gpu.shader_cores0.data         2274                       # Number of write requests responded to by this memory
system.mem_ctrls.num_writes::gpu.shader_cores1.data         2517                       # Number of write requests responded to by this memory
system.mem_ctrls.num_writes::gpu.shader_cores2.data         2731                       # Number of write requests responded to by this memory
system.mem_ctrls.num_writes::gpu.shader_cores3.data         2816                       # Number of write requests responded to by this memory
system.mem_ctrls.num_writes::gpu.ce               423                       # Number of write requests responded to by this memory
system.mem_ctrls.num_writes::cpu.data          165458                       # Number of write requests responded to by this memory
system.mem_ctrls.num_writes::total             187449                       # Number of write requests responded to by this memory
system.mem_ctrls.bw_read::writebacks          8220621                       # Total read bandwidth from this memory (bytes/s)
system.mem_ctrls.bw_read::gpu.shader_cores0.data    374456233                       # Total read bandwidth from this memory (bytes/s)
system.mem_ctrls.bw_read::gpu.shader_cores0.inst       241568                       # Total read bandwidth from this memory (bytes/s)
system.mem_ctrls.bw_read::gpu.shader_cores1.data    308462875                       # Total read bandwidth from this memory (bytes/s)
system.mem_ctrls.bw_read::gpu.shader_cores1.inst       254744                       # Total read bandwidth from this memory (bytes/s)
system.mem_ctrls.bw_read::gpu.shader_cores2.data    298565921                       # Total read bandwidth from this memory (bytes/s)
system.mem_ctrls.bw_read::gpu.shader_cores2.inst       301594                       # Total read bandwidth from this memory (bytes/s)
system.mem_ctrls.bw_read::gpu.shader_cores3.data    380722351                       # Total read bandwidth from this memory (bytes/s)
system.mem_ctrls.bw_read::gpu.shader_cores3.inst       284025                       # Total read bandwidth from this memory (bytes/s)
system.mem_ctrls.bw_read::gpu.ce              9745425                       # Total read bandwidth from this memory (bytes/s)
system.mem_ctrls.bw_read::cpu.inst         3456462873                       # Total read bandwidth from this memory (bytes/s)
system.mem_ctrls.bw_read::cpu.data          422461584                       # Total read bandwidth from this memory (bytes/s)
system.mem_ctrls.bw_read::total            5260179812                       # Total read bandwidth from this memory (bytes/s)
system.mem_ctrls.bw_inst_read::gpu.shader_cores0.inst       241568                       # Instruction read bandwidth from this memory (bytes/s)
system.mem_ctrls.bw_inst_read::gpu.shader_cores1.inst       254744                       # Instruction read bandwidth from this memory (bytes/s)
system.mem_ctrls.bw_inst_read::gpu.shader_cores2.inst       301594                       # Instruction read bandwidth from this memory (bytes/s)
system.mem_ctrls.bw_inst_read::gpu.shader_cores3.inst       284025                       # Instruction read bandwidth from this memory (bytes/s)
system.mem_ctrls.bw_inst_read::cpu.inst    3456462873                       # Instruction read bandwidth from this memory (bytes/s)
system.mem_ctrls.bw_inst_read::total       3457544803                       # Instruction read bandwidth from this memory (bytes/s)
system.mem_ctrls.bw_write::writebacks         8220621                       # Write bandwidth from this memory (bytes/s)
system.mem_ctrls.bw_write::gpu.shader_cores0.data      6275635                       # Write bandwidth from this memory (bytes/s)
system.mem_ctrls.bw_write::gpu.shader_cores1.data      6326877                       # Write bandwidth from this memory (bytes/s)
system.mem_ctrls.bw_write::gpu.shader_cores2.data     11739456                       # Write bandwidth from this memory (bytes/s)
system.mem_ctrls.bw_write::gpu.shader_cores3.data      6728757                       # Write bandwidth from this memory (bytes/s)
system.mem_ctrls.bw_write::gpu.ce             9745425                       # Write bandwidth from this memory (bytes/s)
system.mem_ctrls.bw_write::cpu.data         210978610                       # Write bandwidth from this memory (bytes/s)
system.mem_ctrls.bw_write::total            260015382                       # Write bandwidth from this memory (bytes/s)
system.mem_ctrls.bw_total::writebacks        16441242                       # Total bandwidth to/from this memory (bytes/s)
system.mem_ctrls.bw_total::gpu.shader_cores0.data    380731868                       # Total bandwidth to/from this memory (bytes/s)
system.mem_ctrls.bw_total::gpu.shader_cores0.inst       241568                       # Total bandwidth to/from this memory (bytes/s)
system.mem_ctrls.bw_total::gpu.shader_cores1.data    314789751                       # Total bandwidth to/from this memory (bytes/s)
system.mem_ctrls.bw_total::gpu.shader_cores1.inst       254744                       # Total bandwidth to/from this memory (bytes/s)
system.mem_ctrls.bw_total::gpu.shader_cores2.data    310305377                       # Total bandwidth to/from this memory (bytes/s)
system.mem_ctrls.bw_total::gpu.shader_cores2.inst       301594                       # Total bandwidth to/from this memory (bytes/s)
system.mem_ctrls.bw_total::gpu.shader_cores3.data    387451109                       # Total bandwidth to/from this memory (bytes/s)
system.mem_ctrls.bw_total::gpu.shader_cores3.inst       284025                       # Total bandwidth to/from this memory (bytes/s)
system.mem_ctrls.bw_total::gpu.ce            19490850                       # Total bandwidth to/from this memory (bytes/s)
system.mem_ctrls.bw_total::cpu.inst        3456462873                       # Total bandwidth to/from this memory (bytes/s)
system.mem_ctrls.bw_total::cpu.data         633440193                       # Total bandwidth to/from this memory (bytes/s)
system.mem_ctrls.bw_total::total           5520195194                       # Total bandwidth to/from this memory (bytes/s)
system.ruby_clk_domain.clock                      500                       # Clock period in ticks
system.ruby.delayHist::bucket_size                128                       # delay histogram for all message
system.ruby.delayHist::max_bucket                1279                       # delay histogram for all message
system.ruby.delayHist::samples                  22750                       # delay histogram for all message
system.ruby.delayHist::mean                  2.792440                       # delay histogram for all message
system.ruby.delayHist::stdev                35.081279                       # delay histogram for all message
system.ruby.delayHist                    |       22649     99.56%     99.56% |          18      0.08%     99.64% |          18      0.08%     99.71% |          18      0.08%     99.79% |          18      0.08%     99.87% |          20      0.09%     99.96% |           9      0.04%    100.00% |           0      0.00%    100.00% |           0      0.00%    100.00% |           0      0.00%    100.00% # delay histogram for all message
system.ruby.delayHist::total                    22750                       # delay histogram for all message
system.ruby.outstanding_req_hist::bucket_size            8                      
system.ruby.outstanding_req_hist::max_bucket           79                      
system.ruby.outstanding_req_hist::samples      3071603                      
system.ruby.outstanding_req_hist::mean       1.083201                      
system.ruby.outstanding_req_hist::gmean      1.022978                      
system.ruby.outstanding_req_hist::stdev      1.275256                      
system.ruby.outstanding_req_hist         |     3061147     99.66%     99.66% |        6341      0.21%     99.87% |        2076      0.07%     99.93% |        1047      0.03%     99.97% |         222      0.01%     99.97% |         152      0.00%     99.98% |          67      0.00%     99.98% |         415      0.01%    100.00% |         136      0.00%    100.00% |           0      0.00%    100.00%
system.ruby.outstanding_req_hist::total       3071603                      
system.ruby.latency_hist::bucket_size             512                      
system.ruby.latency_hist::max_bucket             5119                      
system.ruby.latency_hist::samples             3071602                      
system.ruby.latency_hist::mean               4.284296                      
system.ruby.latency_hist::gmean              1.985549                      
system.ruby.latency_hist::stdev             43.293243                      
system.ruby.latency_hist                 |     3070608     99.97%     99.97% |         242      0.01%     99.98% |         123      0.00%     99.98% |         161      0.01%     99.98% |         167      0.01%     99.99% |         187      0.01%    100.00% |          81      0.00%    100.00% |          28      0.00%    100.00% |           5      0.00%    100.00% |           0      0.00%    100.00%
system.ruby.latency_hist::total               3071602                      
system.ruby.hit_latency_hist::bucket_size          512                      
system.ruby.hit_latency_hist::max_bucket         5119                      
system.ruby.hit_latency_hist::samples         3057595                      
system.ruby.hit_latency_hist::mean           3.285205                      
system.ruby.hit_latency_hist::gmean          1.943334                      
system.ruby.hit_latency_hist::stdev         40.554212                      
system.ruby.hit_latency_hist             |     3056749     99.97%     99.97% |          95      0.00%     99.98% |         123      0.00%     99.98% |         161      0.01%     99.98% |         166      0.01%     99.99% |         187      0.01%    100.00% |          81      0.00%    100.00% |          28      0.00%    100.00% |           5      0.00%    100.00% |           0      0.00%    100.00%
system.ruby.hit_latency_hist::total           3057595                      
system.ruby.miss_latency_hist::bucket_size          256                      
system.ruby.miss_latency_hist::max_bucket         2559                      
system.ruby.miss_latency_hist::samples          14007                      
system.ruby.miss_latency_hist::mean        222.376455                      
system.ruby.miss_latency_hist::gmean       216.369661                      
system.ruby.miss_latency_hist::stdev        65.002059                      
system.ruby.miss_latency_hist            |       13406     95.71%     95.71% |         453      3.23%     98.94% |         147      1.05%     99.99% |           0      0.00%     99.99% |           0      0.00%     99.99% |           0      0.00%     99.99% |           0      0.00%     99.99% |           0      0.00%     99.99% |           0      0.00%     99.99% |           1      0.01%    100.00%
system.ruby.miss_latency_hist::total            14007                      
system.ruby.L1Cache.incomplete_times                3                      
system.ruby.GPUL2Cache.incomplete_times         12106                      
system.ruby.Directory.incomplete_times            303                      
system.ruby.l1_cntrl_ce.sequencer.icache.demand_hits            0                       # Number of cache demand hits
system.ruby.l1_cntrl_ce.sequencer.icache.demand_misses            0                       # Number of cache demand misses
system.ruby.l1_cntrl_ce.sequencer.icache.demand_accesses            0                       # Number of cache demand accesses
system.ruby.l1_cntrl0.L1Dcache.demand_hits       476276                       # Number of cache demand hits
system.ruby.l1_cntrl0.L1Dcache.demand_misses         1694                       # Number of cache demand misses
system.ruby.l1_cntrl0.L1Dcache.demand_accesses       477970                       # Number of cache demand accesses
system.ruby.l1_cntrl0.L1Icache.demand_hits      2359803                       # Number of cache demand hits
system.ruby.l1_cntrl0.L1Icache.demand_misses         1094                       # Number of cache demand misses
system.ruby.l1_cntrl0.L1Icache.demand_accesses      2360897                       # Number of cache demand accesses
system.ruby.l1_cntrl0.L2cache.demand_hits         1193                       # Number of cache demand hits
system.ruby.l1_cntrl0.L2cache.demand_misses         1595                       # Number of cache demand misses
system.ruby.l1_cntrl0.L2cache.demand_accesses         2788                       # Number of cache demand accesses
system.ruby.network.ext_links0.int_node.percent_links_utilized     0.047802                      
system.ruby.network.ext_links0.int_node.msg_count.Request_Control::2         2901                      
system.ruby.network.ext_links0.int_node.msg_count.Response_Data::1          424                      
system.ruby.network.ext_links0.int_node.msg_count.Response_Data::4         3345                      
system.ruby.network.ext_links0.int_node.msg_count.Response_Control::4         6541                      
system.ruby.network.ext_links0.int_node.msg_count.Writeback_Control::0          847                      
system.ruby.network.ext_links0.int_node.msg_count.Writeback_Control::1          423                      
system.ruby.network.ext_links0.int_node.msg_count.Broadcast_Control::3         5901                      
system.ruby.network.ext_links0.int_node.msg_count.Unblock_Control::5         2900                      
system.ruby.network.ext_links0.int_node.msg_bytes.Request_Control::2        23208                      
system.ruby.network.ext_links0.int_node.msg_bytes.Response_Data::1        57664                      
system.ruby.network.ext_links0.int_node.msg_bytes.Response_Data::4       454920                      
system.ruby.network.ext_links0.int_node.msg_bytes.Response_Control::4        52328                      
system.ruby.network.ext_links0.int_node.msg_bytes.Writeback_Control::0         6776                      
system.ruby.network.ext_links0.int_node.msg_bytes.Writeback_Control::1         3384                      
system.ruby.network.ext_links0.int_node.msg_bytes.Broadcast_Control::3        47208                      
system.ruby.network.ext_links0.int_node.msg_bytes.Unblock_Control::5        23200                      
system.ruby.network.ext_links1.int_node.percent_links_utilized     0.048664                      
system.ruby.network.ext_links1.int_node.msg_count.Request_Control::2         1595                      
system.ruby.network.ext_links1.int_node.msg_count.Response_Data::4         1892                      
system.ruby.network.ext_links1.int_node.msg_count.Response_Control::4         5040                      
system.ruby.network.ext_links1.int_node.msg_count.Broadcast_Control::3         2153                      
system.ruby.network.ext_links1.int_node.msg_count.Unblock_Control::5         1594                      
system.ruby.network.ext_links1.int_node.msg_bytes.Request_Control::2        12760                      
system.ruby.network.ext_links1.int_node.msg_bytes.Response_Data::4       257312                      
system.ruby.network.ext_links1.int_node.msg_bytes.Response_Control::4        40320                      
system.ruby.network.ext_links1.int_node.msg_bytes.Broadcast_Control::3        17224                      
system.ruby.network.ext_links1.int_node.msg_bytes.Unblock_Control::5        12752                      
system.ruby.l1_cntrl_sp00.cache.demand_hits        59683                       # Number of cache demand hits
system.ruby.l1_cntrl_sp00.cache.demand_misses         4150                       # Number of cache demand misses
system.ruby.l1_cntrl_sp00.cache.demand_accesses        63833                       # Number of cache demand accesses
system.ruby.l1_cntrl_sp00.cache.num_data_array_reads        59683                       # number of data array reads
system.ruby.l1_cntrl_sp00.cache.num_data_array_writes         1345                       # number of data array writes
system.ruby.l1_cntrl_sp00.cache.num_tag_array_reads        63833                       # number of tag array reads
system.ruby.l1_cntrl_sp00.cache.num_tag_array_writes         1662                       # number of tag array writes
system.ruby.network.ext_links2.int_node.percent_links_utilized     0.158985                      
system.ruby.network.ext_links2.int_node.msg_count.Control::7         7919                      
system.ruby.network.ext_links2.int_node.msg_count.Data::7        14831                      
system.ruby.network.ext_links2.int_node.msg_count.Response_Data::6         7919                      
system.ruby.network.ext_links2.int_node.msg_count.Response_Control::4         3748                      
system.ruby.network.ext_links2.int_node.msg_count.Writeback_Control::6        14831                      
system.ruby.network.ext_links2.int_node.msg_count.Broadcast_Control::3         3748                      
system.ruby.network.ext_links2.int_node.msg_bytes.Control::7        63352                      
system.ruby.network.ext_links2.int_node.msg_bytes.Data::7      2017016                      
system.ruby.network.ext_links2.int_node.msg_bytes.Response_Data::6      1076984                      
system.ruby.network.ext_links2.int_node.msg_bytes.Response_Control::4        29984                      
system.ruby.network.ext_links2.int_node.msg_bytes.Writeback_Control::6       118648                      
system.ruby.network.ext_links2.int_node.msg_bytes.Broadcast_Control::3        29984                      
system.ruby.l1_cntrl_sp01.cache.demand_hits        47179                       # Number of cache demand hits
system.ruby.l1_cntrl_sp01.cache.demand_misses         5130                       # Number of cache demand misses
system.ruby.l1_cntrl_sp01.cache.demand_accesses        52309                       # Number of cache demand accesses
system.ruby.l1_cntrl_sp01.cache.num_data_array_reads        47179                       # number of data array reads
system.ruby.l1_cntrl_sp01.cache.num_data_array_writes         2082                       # number of data array writes
system.ruby.l1_cntrl_sp01.cache.num_tag_array_reads        52309                       # number of tag array reads
system.ruby.l1_cntrl_sp01.cache.num_tag_array_writes         2490                       # number of tag array writes
system.ruby.l1_cntrl_sp02.cache.demand_hits        43784                       # Number of cache demand hits
system.ruby.l1_cntrl_sp02.cache.demand_misses         7016                       # Number of cache demand misses
system.ruby.l1_cntrl_sp02.cache.demand_accesses        50800                       # Number of cache demand accesses
system.ruby.l1_cntrl_sp02.cache.num_data_array_reads        43784                       # number of data array reads
system.ruby.l1_cntrl_sp02.cache.num_data_array_writes         2561                       # number of data array writes
system.ruby.l1_cntrl_sp02.cache.num_tag_array_reads        50800                       # number of tag array reads
system.ruby.l1_cntrl_sp02.cache.num_tag_array_writes         3294                       # number of tag array writes
system.ruby.l1_cntrl_sp03.cache.demand_hits        58492                       # Number of cache demand hits
system.ruby.l1_cntrl_sp03.cache.demand_misses         6454                       # Number of cache demand misses
system.ruby.l1_cntrl_sp03.cache.demand_accesses        64946                       # Number of cache demand accesses
system.ruby.l1_cntrl_sp03.cache.num_data_array_reads        58492                       # number of data array reads
system.ruby.l1_cntrl_sp03.cache.num_data_array_writes         1931                       # number of data array writes
system.ruby.l1_cntrl_sp03.cache.num_tag_array_reads        64946                       # number of tag array reads
system.ruby.l1_cntrl_sp03.cache.num_tag_array_writes         2510                       # number of tag array writes
system.ruby.l2_cntrl0.L2cache.demand_hits        21444                       # Number of cache demand hits
system.ruby.l2_cntrl0.L2cache.demand_misses         1306                       # Number of cache demand misses
system.ruby.l2_cntrl0.L2cache.demand_accesses        22750                       # Number of cache demand accesses
system.ruby.l2_cntrl0.L2cache.num_data_array_reads         7812                       # number of data array reads
system.ruby.l2_cntrl0.L2cache.num_data_array_writes        15137                       # number of data array writes
system.ruby.l2_cntrl0.L2cache.num_tag_array_reads        25189                       # number of tag array reads
system.ruby.l2_cntrl0.L2cache.num_tag_array_writes         2697                       # number of tag array writes
system.ruby.network.ext_links6.int_node.percent_links_utilized     0.344004                      
system.ruby.network.ext_links6.int_node.msg_count.Control::7         7919                      
system.ruby.network.ext_links6.int_node.msg_count.Data::7        14831                      
system.ruby.network.ext_links6.int_node.msg_count.Request_Control::2         1306                      
system.ruby.network.ext_links6.int_node.msg_count.Response_Data::4         1505                      
system.ruby.network.ext_links6.int_node.msg_count.Response_Data::6         7919                      
system.ruby.network.ext_links6.int_node.msg_count.Response_Control::4         7251                      
system.ruby.network.ext_links6.int_node.msg_count.Writeback_Control::6        14831                      
system.ruby.network.ext_links6.int_node.msg_count.Broadcast_Control::3         6190                      
system.ruby.network.ext_links6.int_node.msg_count.Unblock_Control::5         1306                      
system.ruby.network.ext_links6.int_node.msg_bytes.Control::7        63352                      
system.ruby.network.ext_links6.int_node.msg_bytes.Data::7      2017016                      
system.ruby.network.ext_links6.int_node.msg_bytes.Request_Control::2        10448                      
system.ruby.network.ext_links6.int_node.msg_bytes.Response_Data::4       204680                      
system.ruby.network.ext_links6.int_node.msg_bytes.Response_Data::6      1076984                      
system.ruby.network.ext_links6.int_node.msg_bytes.Response_Control::4        58008                      
system.ruby.network.ext_links6.int_node.msg_bytes.Writeback_Control::6       118648                      
system.ruby.network.ext_links6.int_node.msg_bytes.Broadcast_Control::3        49520                      
system.ruby.network.ext_links6.int_node.msg_bytes.Unblock_Control::5        10448                      
system.ruby.l1_pw_cntrl.L1Dcache.demand_hits            0                       # Number of cache demand hits
system.ruby.l1_pw_cntrl.L1Dcache.demand_misses            0                       # Number of cache demand misses
system.ruby.l1_pw_cntrl.L1Dcache.demand_accesses            0                       # Number of cache demand accesses
system.ruby.l1_pw_cntrl.L1Icache.demand_hits            0                       # Number of cache demand hits
system.ruby.l1_pw_cntrl.L1Icache.demand_misses            0                       # Number of cache demand misses
system.ruby.l1_pw_cntrl.L1Icache.demand_accesses            0                       # Number of cache demand accesses
system.ruby.l1_pw_cntrl.L2cache.demand_hits            0                       # Number of cache demand hits
system.ruby.l1_pw_cntrl.L2cache.demand_misses            0                       # Number of cache demand misses
system.ruby.l1_pw_cntrl.L2cache.demand_accesses            0                       # Number of cache demand accesses
system.ruby.dir_cntrl0.memBuffer.clk_domain.clock         2500                       # Clock period in ticks
system.ruby.dir_cntrl0.memBuffer.memReq          3272                       # Total number of memory requests
system.ruby.dir_cntrl0.memBuffer.memRead         2849                       # Number of memory reads
system.ruby.dir_cntrl0.memBuffer.memWrite          423                       # Number of memory writes
system.ruby.dir_cntrl0.memBuffer.memRefresh        12651                       # Number of memory refreshes
system.ruby.dir_cntrl0.memBuffer.memWaitCycles        45659                       # Delay stalled at the head of the bank queue
system.ruby.dir_cntrl0.memBuffer.memInputQ        13493                       # Delay in the input queue
system.ruby.dir_cntrl0.memBuffer.memBankQ       165323                       # Delay behind the head of the bank queue
system.ruby.dir_cntrl0.memBuffer.totalStalls       224475                       # Total number of stall cycles
system.ruby.dir_cntrl0.memBuffer.stallsPerReq    68.604829                       # Expected number of stall cycles per request
system.ruby.dir_cntrl0.memBuffer.memBankBusy         9799                       # memory stalls due to busy bank
system.ruby.dir_cntrl0.memBuffer.memBusBusy        12098                       # memory stalls due to busy bus
system.ruby.dir_cntrl0.memBuffer.memDataBusBusy         4403                       # memory stalls due to read read turnaround
system.ruby.dir_cntrl0.memBuffer.memArbWait         7562                       # memory stalls due to arbitration
system.ruby.dir_cntrl0.memBuffer.memNotOld        11797                       # memory stalls due to anti starvation
system.ruby.dir_cntrl0.memBuffer.memBankCount |         123      3.76%      3.76% |          98      3.00%      6.75% |         109      3.33%     10.09% |         108      3.30%     13.39% |         103      3.15%     16.53% |         105      3.21%     19.74% |         100      3.06%     22.80% |          95      2.90%     25.70% |          93      2.84%     28.55% |          92      2.81%     31.36% |          94      2.87%     34.23% |         106      3.24%     37.47% |          98      3.00%     40.46% |         102      3.12%     43.58% |         114      3.48%     47.07% |         127      3.88%     50.95% |         129      3.94%     54.89% |         101      3.09%     57.98% |          95      2.90%     60.88% |          98      3.00%     63.88% |          99      3.03%     66.90% |         101      3.09%     69.99% |          93      2.84%     72.83% |          91      2.78%     75.61% |          94      2.87%     78.48% |          98      3.00%     81.48% |          99      3.03%     84.50% |         104      3.18%     87.68% |          97      2.96%     90.65% |         102      3.12%     93.77% |          99      3.03%     96.79% |         105      3.21%    100.00% # Number of accesses per bank
system.ruby.dir_cntrl0.memBuffer.memBankCount::total         3272                       # Number of accesses per bank
system.ruby.dir_cntrl0.probeFilter.demand_hits            0                       # Number of cache demand hits
system.ruby.dir_cntrl0.probeFilter.demand_misses            0                       # Number of cache demand misses
system.ruby.dir_cntrl0.probeFilter.demand_accesses            0                       # Number of cache demand accesses
system.ruby.dir_cntrl0.probeFilter.num_data_array_reads         3748                       # number of data array reads
system.ruby.dir_cntrl0.probeFilter.num_data_array_writes         6633                       # number of data array writes
system.ruby.network.msg_count.Control           15838                      
system.ruby.network.msg_count.Data              29662                      
system.ruby.network.msg_count.Request_Control         5802                      
system.ruby.network.msg_count.Response_Data        23004                      
system.ruby.network.msg_count.Response_Control        22580                      
system.ruby.network.msg_count.Writeback_Control        30932                      
system.ruby.network.msg_count.Broadcast_Control        17992                      
system.ruby.network.msg_count.Unblock_Control         5800                      
system.ruby.network.msg_byte.Control           126704                      
system.ruby.network.msg_byte.Data             4034032                      
system.ruby.network.msg_byte.Request_Control        46416                      
system.ruby.network.msg_byte.Response_Data      3128544                      
system.ruby.network.msg_byte.Response_Control       180640                      
system.ruby.network.msg_byte.Writeback_Control       247456                      
system.ruby.network.msg_byte.Broadcast_Control       143936                      
system.ruby.network.msg_byte.Unblock_Control        46400                      
system.cpu_voltage_domain.voltage                   1                       # Voltage in Volts
system.gpu.clk_domain.voltage_domain.voltage            1                       # Voltage in Volts
system.gpu.clk_domain.clock                      1429                       # Clock period in ticks
system.gpu.dram_wrapper.clk_domain.clock          541                       # Clock period in ticks
system.gpu.icnt_wrapper.clk_domain.clock         2858                       # Clock period in ticks
system.gpu.shader_mmu.numPagefaults                 0                       # Number of Pagefaults
system.gpu.shader_mmu.numPagewalks                 28                       # Number of Pagewalks
system.gpu.shader_mmu.totalRequests                28                       # Total number of requests
system.gpu.shader_mmu.retryFailures                 0                       # Times the retry walk after a pagefault failed
system.gpu.shader_mmu.l2hits                        0                       # Hits in the shared L2
system.gpu.shader_mmu.prefetchHits                  0                       # Number of prefetch hits
system.gpu.shader_mmu.numPrefetches                 0                       # Number of prefetchs
system.gpu.shader_mmu.prefetchFaults                0                       # Number of faults caused by prefetches
system.gpu.shader_mmu.pagefaultLatency::samples            0                       # Latency to complete the pagefault
system.gpu.shader_mmu.pagefaultLatency::mean          nan                       # Latency to complete the pagefault
system.gpu.shader_mmu.pagefaultLatency::gmean          nan                       # Latency to complete the pagefault
system.gpu.shader_mmu.pagefaultLatency::stdev          nan                       # Latency to complete the pagefault
system.gpu.shader_mmu.pagefaultLatency::0            0                       # Latency to complete the pagefault
system.gpu.shader_mmu.pagefaultLatency::1            0                       # Latency to complete the pagefault
system.gpu.shader_mmu.pagefaultLatency::2            0                       # Latency to complete the pagefault
system.gpu.shader_mmu.pagefaultLatency::3            0                       # Latency to complete the pagefault
system.gpu.shader_mmu.pagefaultLatency::4            0                       # Latency to complete the pagefault
system.gpu.shader_mmu.pagefaultLatency::5            0                       # Latency to complete the pagefault
system.gpu.shader_mmu.pagefaultLatency::6            0                       # Latency to complete the pagefault
system.gpu.shader_mmu.pagefaultLatency::7            0                       # Latency to complete the pagefault
system.gpu.shader_mmu.pagefaultLatency::8            0                       # Latency to complete the pagefault
system.gpu.shader_mmu.pagefaultLatency::9            0                       # Latency to complete the pagefault
system.gpu.shader_mmu.pagefaultLatency::10            0                       # Latency to complete the pagefault
system.gpu.shader_mmu.pagefaultLatency::11            0                       # Latency to complete the pagefault
system.gpu.shader_mmu.pagefaultLatency::12            0                       # Latency to complete the pagefault
system.gpu.shader_mmu.pagefaultLatency::13            0                       # Latency to complete the pagefault
system.gpu.shader_mmu.pagefaultLatency::14            0                       # Latency to complete the pagefault
system.gpu.shader_mmu.pagefaultLatency::15            0                       # Latency to complete the pagefault
system.gpu.shader_mmu.pagefaultLatency::16            0                       # Latency to complete the pagefault
system.gpu.shader_mmu.pagefaultLatency::17            0                       # Latency to complete the pagefault
system.gpu.shader_mmu.pagefaultLatency::18            0                       # Latency to complete the pagefault
system.gpu.shader_mmu.pagefaultLatency::19            0                       # Latency to complete the pagefault
system.gpu.shader_mmu.pagefaultLatency::20            0                       # Latency to complete the pagefault
system.gpu.shader_mmu.pagefaultLatency::21            0                       # Latency to complete the pagefault
system.gpu.shader_mmu.pagefaultLatency::22            0                       # Latency to complete the pagefault
system.gpu.shader_mmu.pagefaultLatency::23            0                       # Latency to complete the pagefault
system.gpu.shader_mmu.pagefaultLatency::24            0                       # Latency to complete the pagefault
system.gpu.shader_mmu.pagefaultLatency::25            0                       # Latency to complete the pagefault
system.gpu.shader_mmu.pagefaultLatency::26            0                       # Latency to complete the pagefault
system.gpu.shader_mmu.pagefaultLatency::27            0                       # Latency to complete the pagefault
system.gpu.shader_mmu.pagefaultLatency::28            0                       # Latency to complete the pagefault
system.gpu.shader_mmu.pagefaultLatency::29            0                       # Latency to complete the pagefault
system.gpu.shader_mmu.pagefaultLatency::30            0                       # Latency to complete the pagefault
system.gpu.shader_mmu.pagefaultLatency::31            0                       # Latency to complete the pagefault
system.gpu.shader_mmu.pagefaultLatency::total            0                       # Latency to complete the pagefault
system.gpu.shader_mmu.concurrentWalks::samples           28                       # Number of outstanding walks
system.gpu.shader_mmu.concurrentWalks::mean            0                       # Number of outstanding walks
system.gpu.shader_mmu.concurrentWalks::gmean            0                       # Number of outstanding walks
system.gpu.shader_mmu.concurrentWalks::stdev            0                       # Number of outstanding walks
system.gpu.shader_mmu.concurrentWalks::0           28    100.00%    100.00% # Number of outstanding walks
system.gpu.shader_mmu.concurrentWalks::1            0      0.00%    100.00% # Number of outstanding walks
system.gpu.shader_mmu.concurrentWalks::2            0      0.00%    100.00% # Number of outstanding walks
system.gpu.shader_mmu.concurrentWalks::3            0      0.00%    100.00% # Number of outstanding walks
system.gpu.shader_mmu.concurrentWalks::4            0      0.00%    100.00% # Number of outstanding walks
system.gpu.shader_mmu.concurrentWalks::5            0      0.00%    100.00% # Number of outstanding walks
system.gpu.shader_mmu.concurrentWalks::6            0      0.00%    100.00% # Number of outstanding walks
system.gpu.shader_mmu.concurrentWalks::7            0      0.00%    100.00% # Number of outstanding walks
system.gpu.shader_mmu.concurrentWalks::8            0      0.00%    100.00% # Number of outstanding walks
system.gpu.shader_mmu.concurrentWalks::9            0      0.00%    100.00% # Number of outstanding walks
system.gpu.shader_mmu.concurrentWalks::10            0      0.00%    100.00% # Number of outstanding walks
system.gpu.shader_mmu.concurrentWalks::11            0      0.00%    100.00% # Number of outstanding walks
system.gpu.shader_mmu.concurrentWalks::12            0      0.00%    100.00% # Number of outstanding walks
system.gpu.shader_mmu.concurrentWalks::13            0      0.00%    100.00% # Number of outstanding walks
system.gpu.shader_mmu.concurrentWalks::14            0      0.00%    100.00% # Number of outstanding walks
system.gpu.shader_mmu.concurrentWalks::15            0      0.00%    100.00% # Number of outstanding walks
system.gpu.shader_mmu.concurrentWalks::total           28                       # Number of outstanding walks
system.gpu.shader_mmu.pagewalkLatency::samples           28                       # Latency to complete the pagewalk
system.gpu.shader_mmu.pagewalkLatency::mean            0                       # Latency to complete the pagewalk
system.gpu.shader_mmu.pagewalkLatency::gmean            0                       # Latency to complete the pagewalk
system.gpu.shader_mmu.pagewalkLatency::stdev            0                       # Latency to complete the pagewalk
system.gpu.shader_mmu.pagewalkLatency::0           28    100.00%    100.00% # Latency to complete the pagewalk
system.gpu.shader_mmu.pagewalkLatency::1            0      0.00%    100.00% # Latency to complete the pagewalk
system.gpu.shader_mmu.pagewalkLatency::2            0      0.00%    100.00% # Latency to complete the pagewalk
system.gpu.shader_mmu.pagewalkLatency::3            0      0.00%    100.00% # Latency to complete the pagewalk
system.gpu.shader_mmu.pagewalkLatency::4            0      0.00%    100.00% # Latency to complete the pagewalk
system.gpu.shader_mmu.pagewalkLatency::5            0      0.00%    100.00% # Latency to complete the pagewalk
system.gpu.shader_mmu.pagewalkLatency::6            0      0.00%    100.00% # Latency to complete the pagewalk
system.gpu.shader_mmu.pagewalkLatency::7            0      0.00%    100.00% # Latency to complete the pagewalk
system.gpu.shader_mmu.pagewalkLatency::8            0      0.00%    100.00% # Latency to complete the pagewalk
system.gpu.shader_mmu.pagewalkLatency::9            0      0.00%    100.00% # Latency to complete the pagewalk
system.gpu.shader_mmu.pagewalkLatency::10            0      0.00%    100.00% # Latency to complete the pagewalk
system.gpu.shader_mmu.pagewalkLatency::11            0      0.00%    100.00% # Latency to complete the pagewalk
system.gpu.shader_mmu.pagewalkLatency::12            0      0.00%    100.00% # Latency to complete the pagewalk
system.gpu.shader_mmu.pagewalkLatency::13            0      0.00%    100.00% # Latency to complete the pagewalk
system.gpu.shader_mmu.pagewalkLatency::14            0      0.00%    100.00% # Latency to complete the pagewalk
system.gpu.shader_mmu.pagewalkLatency::15            0      0.00%    100.00% # Latency to complete the pagewalk
system.gpu.shader_mmu.pagewalkLatency::16            0      0.00%    100.00% # Latency to complete the pagewalk
system.gpu.shader_mmu.pagewalkLatency::17            0      0.00%    100.00% # Latency to complete the pagewalk
system.gpu.shader_mmu.pagewalkLatency::18            0      0.00%    100.00% # Latency to complete the pagewalk
system.gpu.shader_mmu.pagewalkLatency::19            0      0.00%    100.00% # Latency to complete the pagewalk
system.gpu.shader_mmu.pagewalkLatency::20            0      0.00%    100.00% # Latency to complete the pagewalk
system.gpu.shader_mmu.pagewalkLatency::21            0      0.00%    100.00% # Latency to complete the pagewalk
system.gpu.shader_mmu.pagewalkLatency::22            0      0.00%    100.00% # Latency to complete the pagewalk
system.gpu.shader_mmu.pagewalkLatency::23            0      0.00%    100.00% # Latency to complete the pagewalk
system.gpu.shader_mmu.pagewalkLatency::24            0      0.00%    100.00% # Latency to complete the pagewalk
system.gpu.shader_mmu.pagewalkLatency::25            0      0.00%    100.00% # Latency to complete the pagewalk
system.gpu.shader_mmu.pagewalkLatency::26            0      0.00%    100.00% # Latency to complete the pagewalk
system.gpu.shader_mmu.pagewalkLatency::27            0      0.00%    100.00% # Latency to complete the pagewalk
system.gpu.shader_mmu.pagewalkLatency::28            0      0.00%    100.00% # Latency to complete the pagewalk
system.gpu.shader_mmu.pagewalkLatency::29            0      0.00%    100.00% # Latency to complete the pagewalk
system.gpu.shader_mmu.pagewalkLatency::30            0      0.00%    100.00% # Latency to complete the pagewalk
system.gpu.shader_mmu.pagewalkLatency::31            0      0.00%    100.00% # Latency to complete the pagewalk
system.gpu.shader_mmu.pagewalkLatency::total           28                       # Latency to complete the pagewalk
system.gpu.kernels_started                          9                       # Number of kernels started
system.gpu.kernels_completed                        9                       # Number of kernels completed
system.gpu.shader_cores0.itb.hits                   0                       # Number of hits in this TLB
system.gpu.shader_cores0.itb.misses                 0                       # Number of misses in this TLB
system.gpu.shader_cores0.itb.hitRate              nan                       # Hit rate for this TLB
system.gpu.shader_cores0.local_loads                0                       # Number of loads from local space
system.gpu.shader_cores0.local_stores               0                       # Number of stores to local space
system.gpu.shader_cores0.shared_loads          363367                       # Number of loads from shared space
system.gpu.shader_cores0.shared_stores          28327                       # Number of stores to shared space
system.gpu.shader_cores0.param_kernel_loads       744492                       # Number of loads from kernel parameter space
system.gpu.shader_cores0.param_local_loads            0                       # Number of loads from local parameter space
system.gpu.shader_cores0.param_local_stores            0                       # Number of stores to local parameter space
system.gpu.shader_cores0.const_loads                0                       # Number of loads from constant space
system.gpu.shader_cores0.tex_loads                  0                       # Number of loads from texture space
system.gpu.shader_cores0.global_loads         1831565                       # Number of loads from global space
system.gpu.shader_cores0.global_stores           8573                       # Number of stores to global space
system.gpu.shader_cores0.surf_loads                 0                       # Number of loads from surface space
system.gpu.shader_cores0.generic_loads              0                       # Number of loads from generic spaces (global, shared, local)
system.gpu.shader_cores0.generic_stores             0                       # Number of stores to generic spaces (global, shared, local)
system.gpu.shader_cores0.inst_cache_requests           55                       # Number of instruction cache requests sent
system.gpu.shader_cores0.inst_cache_retries            0                       # Number of instruction cache retries
system.gpu.shader_cores0.inst_counts::0             0                       # Inst counts: 1: ALU, 2: MAD, 3: CTRL, 4: SFU, 5: MEM, 6: TEX, 7: NOP
system.gpu.shader_cores0.inst_counts::1      11397508                       # Inst counts: 1: ALU, 2: MAD, 3: CTRL, 4: SFU, 5: MEM, 6: TEX, 7: NOP
system.gpu.shader_cores0.inst_counts::2       1826421                       # Inst counts: 1: ALU, 2: MAD, 3: CTRL, 4: SFU, 5: MEM, 6: TEX, 7: NOP
system.gpu.shader_cores0.inst_counts::3       1632623                       # Inst counts: 1: ALU, 2: MAD, 3: CTRL, 4: SFU, 5: MEM, 6: TEX, 7: NOP
system.gpu.shader_cores0.inst_counts::4        247872                       # Inst counts: 1: ALU, 2: MAD, 3: CTRL, 4: SFU, 5: MEM, 6: TEX, 7: NOP
system.gpu.shader_cores0.inst_counts::5       2976324                       # Inst counts: 1: ALU, 2: MAD, 3: CTRL, 4: SFU, 5: MEM, 6: TEX, 7: NOP
system.gpu.shader_cores0.inst_counts::6             0                       # Inst counts: 1: ALU, 2: MAD, 3: CTRL, 4: SFU, 5: MEM, 6: TEX, 7: NOP
system.gpu.shader_cores0.inst_counts::7             0                       # Inst counts: 1: ALU, 2: MAD, 3: CTRL, 4: SFU, 5: MEM, 6: TEX, 7: NOP
system.gpu.shader_cores0.activeCycles          665900                       # Number of cycles this shader was executing a CTA
system.gpu.shader_cores0.notStalledCycles       451903                       # Number of cycles this shader was actually executing at least one instance
system.gpu.shader_cores0.instInstances       18080748                       # Total instructions executed by all PEs in the core
system.gpu.shader_cores0.instPerCycle       27.152347                       # Instruction instances per cycle
system.gpu.shader_cores0.kernels_completed            8                       # Number of kernels completed
system.gpu.shader_cores0.lsq.data_tlb.hits            0                       # Number of hits in this TLB
system.gpu.shader_cores0.lsq.data_tlb.misses            0                       # Number of misses in this TLB
system.gpu.shader_cores0.lsq.data_tlb.hitRate          nan                       # Hit rate for this TLB
system.gpu.shader_cores0.lsq.warpInstBufActive::samples   1951205994                       # Histogram of number of active warp inst buffers at a given time
system.gpu.shader_cores0.lsq.warpInstBufActive::mean     1.566971                       # Histogram of number of active warp inst buffers at a given time
system.gpu.shader_cores0.lsq.warpInstBufActive::gmean          nan                       # Histogram of number of active warp inst buffers at a given time
system.gpu.shader_cores0.lsq.warpInstBufActive::stdev     5.578752                       # Histogram of number of active warp inst buffers at a given time
system.gpu.shader_cores0.lsq.warpInstBufActive::0   1234834004     63.29%     63.29% # Histogram of number of active warp inst buffers at a given time
system.gpu.shader_cores0.lsq.warpInstBufActive::1    300317211     15.39%     78.68% # Histogram of number of active warp inst buffers at a given time
system.gpu.shader_cores0.lsq.warpInstBufActive::2    197586401     10.13%     88.80% # Histogram of number of active warp inst buffers at a given time
system.gpu.shader_cores0.lsq.warpInstBufActive::3     86594542      4.44%     93.24% # Histogram of number of active warp inst buffers at a given time
system.gpu.shader_cores0.lsq.warpInstBufActive::4     33164232      1.70%     94.94% # Histogram of number of active warp inst buffers at a given time
system.gpu.shader_cores0.lsq.warpInstBufActive::5     14069934      0.72%     95.66% # Histogram of number of active warp inst buffers at a given time
system.gpu.shader_cores0.lsq.warpInstBufActive::6      8706897      0.45%     96.11% # Histogram of number of active warp inst buffers at a given time
system.gpu.shader_cores0.lsq.warpInstBufActive::7      6984952      0.36%     96.47% # Histogram of number of active warp inst buffers at a given time
system.gpu.shader_cores0.lsq.warpInstBufActive::8      7529401      0.39%     96.85% # Histogram of number of active warp inst buffers at a given time
system.gpu.shader_cores0.lsq.warpInstBufActive::9      3416739      0.18%     97.03% # Histogram of number of active warp inst buffers at a given time
system.gpu.shader_cores0.lsq.warpInstBufActive::10      2740822      0.14%     97.17% # Histogram of number of active warp inst buffers at a given time
system.gpu.shader_cores0.lsq.warpInstBufActive::11      1982023      0.10%     97.27% # Histogram of number of active warp inst buffers at a given time
system.gpu.shader_cores0.lsq.warpInstBufActive::12      1650495      0.08%     97.35% # Histogram of number of active warp inst buffers at a given time
system.gpu.shader_cores0.lsq.warpInstBufActive::13      1533317      0.08%     97.43% # Histogram of number of active warp inst buffers at a given time
system.gpu.shader_cores0.lsq.warpInstBufActive::14      1660498      0.09%     97.52% # Histogram of number of active warp inst buffers at a given time
system.gpu.shader_cores0.lsq.warpInstBufActive::15      1496163      0.08%     97.59% # Histogram of number of active warp inst buffers at a given time
system.gpu.shader_cores0.lsq.warpInstBufActive::16      1804827      0.09%     97.69% # Histogram of number of active warp inst buffers at a given time
system.gpu.shader_cores0.lsq.warpInstBufActive::17      1606196      0.08%     97.77% # Histogram of number of active warp inst buffers at a given time
system.gpu.shader_cores0.lsq.warpInstBufActive::18      1430429      0.07%     97.84% # Histogram of number of active warp inst buffers at a given time
system.gpu.shader_cores0.lsq.warpInstBufActive::19      1460438      0.07%     97.92% # Histogram of number of active warp inst buffers at a given time
system.gpu.shader_cores0.lsq.warpInstBufActive::20      1639063      0.08%     98.00% # Histogram of number of active warp inst buffers at a given time
system.gpu.shader_cores0.lsq.warpInstBufActive::21      1313251      0.07%     98.07% # Histogram of number of active warp inst buffers at a given time
system.gpu.shader_cores0.lsq.warpInstBufActive::22      1284671      0.07%     98.13% # Histogram of number of active warp inst buffers at a given time
system.gpu.shader_cores0.lsq.warpInstBufActive::23      1293245      0.07%     98.20% # Histogram of number of active warp inst buffers at a given time
system.gpu.shader_cores0.lsq.warpInstBufActive::24      1307535      0.07%     98.27% # Histogram of number of active warp inst buffers at a given time
system.gpu.shader_cores0.lsq.warpInstBufActive::25      1337544      0.07%     98.34% # Histogram of number of active warp inst buffers at a given time
system.gpu.shader_cores0.lsq.warpInstBufActive::26      1281813      0.07%     98.40% # Histogram of number of active warp inst buffers at a given time
system.gpu.shader_cores0.lsq.warpInstBufActive::27      1267523      0.06%     98.47% # Histogram of number of active warp inst buffers at a given time
system.gpu.shader_cores0.lsq.warpInstBufActive::28      1290387      0.07%     98.53% # Histogram of number of active warp inst buffers at a given time
system.gpu.shader_cores0.lsq.warpInstBufActive::29      1306106      0.07%     98.60% # Histogram of number of active warp inst buffers at a given time
system.gpu.shader_cores0.lsq.warpInstBufActive::30      1273239      0.07%     98.67% # Histogram of number of active warp inst buffers at a given time
system.gpu.shader_cores0.lsq.warpInstBufActive::31      1281813      0.07%     98.73% # Histogram of number of active warp inst buffers at a given time
system.gpu.shader_cores0.lsq.warpInstBufActive::32      1338973      0.07%     98.80% # Histogram of number of active warp inst buffers at a given time
system.gpu.shader_cores0.lsq.warpInstBufActive::33      1263236      0.06%     98.86% # Histogram of number of active warp inst buffers at a given time
system.gpu.shader_cores0.lsq.warpInstBufActive::34      1266094      0.06%     98.93% # Histogram of number of active warp inst buffers at a given time
system.gpu.shader_cores0.lsq.warpInstBufActive::35      1316109      0.07%     99.00% # Histogram of number of active warp inst buffers at a given time
system.gpu.shader_cores0.lsq.warpInstBufActive::36      1264665      0.06%     99.06% # Histogram of number of active warp inst buffers at a given time
system.gpu.shader_cores0.lsq.warpInstBufActive::37      1264665      0.06%     99.13% # Histogram of number of active warp inst buffers at a given time
system.gpu.shader_cores0.lsq.warpInstBufActive::38      1266094      0.06%     99.19% # Histogram of number of active warp inst buffers at a given time
system.gpu.shader_cores0.lsq.warpInstBufActive::39      1261807      0.06%     99.26% # Histogram of number of active warp inst buffers at a given time
system.gpu.shader_cores0.lsq.warpInstBufActive::40      1244659      0.06%     99.32% # Histogram of number of active warp inst buffers at a given time
system.gpu.shader_cores0.lsq.warpInstBufActive::41      1248946      0.06%     99.38% # Histogram of number of active warp inst buffers at a given time
system.gpu.shader_cores0.lsq.warpInstBufActive::42      1264665      0.06%     99.45% # Histogram of number of active warp inst buffers at a given time
system.gpu.shader_cores0.lsq.warpInstBufActive::43      1411852      0.07%     99.52% # Histogram of number of active warp inst buffers at a given time
system.gpu.shader_cores0.lsq.warpInstBufActive::44      1241801      0.06%     99.58% # Histogram of number of active warp inst buffers at a given time
system.gpu.shader_cores0.lsq.warpInstBufActive::45      1246088      0.06%     99.65% # Histogram of number of active warp inst buffers at a given time
system.gpu.shader_cores0.lsq.warpInstBufActive::46      1278955      0.07%     99.71% # Histogram of number of active warp inst buffers at a given time
system.gpu.shader_cores0.lsq.warpInstBufActive::47      1284671      0.07%     99.78% # Histogram of number of active warp inst buffers at a given time
system.gpu.shader_cores0.lsq.warpInstBufActive::48      1240372      0.06%     99.84% # Histogram of number of active warp inst buffers at a given time
system.gpu.shader_cores0.lsq.warpInstBufActive::49        12861      0.00%     99.84% # Histogram of number of active warp inst buffers at a given time
system.gpu.shader_cores0.lsq.warpInstBufActive::50         7145      0.00%     99.84% # Histogram of number of active warp inst buffers at a given time
system.gpu.shader_cores0.lsq.warpInstBufActive::51        18577      0.00%     99.85% # Histogram of number of active warp inst buffers at a given time
system.gpu.shader_cores0.lsq.warpInstBufActive::52        12861      0.00%     99.85% # Histogram of number of active warp inst buffers at a given time
system.gpu.shader_cores0.lsq.warpInstBufActive::53        11432      0.00%     99.85% # Histogram of number of active warp inst buffers at a given time
system.gpu.shader_cores0.lsq.warpInstBufActive::54       135755      0.01%     99.85% # Histogram of number of active warp inst buffers at a given time
system.gpu.shader_cores0.lsq.warpInstBufActive::55        12861      0.00%     99.85% # Histogram of number of active warp inst buffers at a given time
system.gpu.shader_cores0.lsq.warpInstBufActive::56         8574      0.00%     99.85% # Histogram of number of active warp inst buffers at a given time
system.gpu.shader_cores0.lsq.warpInstBufActive::57         5716      0.00%     99.85% # Histogram of number of active warp inst buffers at a given time
system.gpu.shader_cores0.lsq.warpInstBufActive::58        21435      0.00%     99.86% # Histogram of number of active warp inst buffers at a given time
system.gpu.shader_cores0.lsq.warpInstBufActive::59        32867      0.00%     99.86% # Histogram of number of active warp inst buffers at a given time
system.gpu.shader_cores0.lsq.warpInstBufActive::60        15719      0.00%     99.86% # Histogram of number of active warp inst buffers at a given time
system.gpu.shader_cores0.lsq.warpInstBufActive::61        31438      0.00%     99.86% # Histogram of number of active warp inst buffers at a given time
system.gpu.shader_cores0.lsq.warpInstBufActive::62        17148      0.00%     99.86% # Histogram of number of active warp inst buffers at a given time
system.gpu.shader_cores0.lsq.warpInstBufActive::63       227211      0.01%     99.87% # Histogram of number of active warp inst buffers at a given time
system.gpu.shader_cores0.lsq.warpInstBufActive::64      2485031      0.13%    100.00% # Histogram of number of active warp inst buffers at a given time
system.gpu.shader_cores0.lsq.warpInstBufActive::total   1951205994                       # Histogram of number of active warp inst buffers at a given time
system.gpu.shader_cores0.lsq.cacheAccesses     0.136053                       # Average number of concurrent outstanding cache accesses
system.gpu.shader_cores0.lsq.writebackBlockedCycles         8282                       # Number of cycles blocked for core writeback stage
system.gpu.shader_cores0.lsq.mshrHitQueued         2379                       # Number of hits on blocked lines in MSHRs
system.gpu.shader_cores0.lsq.mshrsFullCycles            0                       # Number of cycles stalled waiting for an MSHR
system.gpu.shader_cores0.lsq.mshrsFullCount            0                       # Number of times MSHRs filled
system.gpu.shader_cores0.lsq.warpCoalescedAccesses::samples        59503                       # Number of coalesced accesses per warp instruction
system.gpu.shader_cores0.lsq.warpCoalescedAccesses::mean     1.071845                       # Number of coalesced accesses per warp instruction
system.gpu.shader_cores0.lsq.warpCoalescedAccesses::gmean     1.024342                       # Number of coalesced accesses per warp instruction
system.gpu.shader_cores0.lsq.warpCoalescedAccesses::stdev     0.873382                       # Number of coalesced accesses per warp instruction
system.gpu.shader_cores0.lsq.warpCoalescedAccesses::0            0      0.00%      0.00% # Number of coalesced accesses per warp instruction
system.gpu.shader_cores0.lsq.warpCoalescedAccesses::1        58434     98.20%     98.20% # Number of coalesced accesses per warp instruction
system.gpu.shader_cores0.lsq.warpCoalescedAccesses::2          355      0.60%     98.80% # Number of coalesced accesses per warp instruction
system.gpu.shader_cores0.lsq.warpCoalescedAccesses::3          187      0.31%     99.11% # Number of coalesced accesses per warp instruction
system.gpu.shader_cores0.lsq.warpCoalescedAccesses::4          144      0.24%     99.36% # Number of coalesced accesses per warp instruction
system.gpu.shader_cores0.lsq.warpCoalescedAccesses::5          135      0.23%     99.58% # Number of coalesced accesses per warp instruction
system.gpu.shader_cores0.lsq.warpCoalescedAccesses::6           75      0.13%     99.71% # Number of coalesced accesses per warp instruction
system.gpu.shader_cores0.lsq.warpCoalescedAccesses::7           34      0.06%     99.77% # Number of coalesced accesses per warp instruction
system.gpu.shader_cores0.lsq.warpCoalescedAccesses::8           27      0.05%     99.81% # Number of coalesced accesses per warp instruction
system.gpu.shader_cores0.lsq.warpCoalescedAccesses::9           12      0.02%     99.83% # Number of coalesced accesses per warp instruction
system.gpu.shader_cores0.lsq.warpCoalescedAccesses::10            4      0.01%     99.84% # Number of coalesced accesses per warp instruction
system.gpu.shader_cores0.lsq.warpCoalescedAccesses::11           48      0.08%     99.92% # Number of coalesced accesses per warp instruction
system.gpu.shader_cores0.lsq.warpCoalescedAccesses::12            0      0.00%     99.92% # Number of coalesced accesses per warp instruction
system.gpu.shader_cores0.lsq.warpCoalescedAccesses::13            0      0.00%     99.92% # Number of coalesced accesses per warp instruction
system.gpu.shader_cores0.lsq.warpCoalescedAccesses::14            0      0.00%     99.92% # Number of coalesced accesses per warp instruction
system.gpu.shader_cores0.lsq.warpCoalescedAccesses::15            0      0.00%     99.92% # Number of coalesced accesses per warp instruction
system.gpu.shader_cores0.lsq.warpCoalescedAccesses::16            0      0.00%     99.92% # Number of coalesced accesses per warp instruction
system.gpu.shader_cores0.lsq.warpCoalescedAccesses::17            0      0.00%     99.92% # Number of coalesced accesses per warp instruction
system.gpu.shader_cores0.lsq.warpCoalescedAccesses::18            0      0.00%     99.92% # Number of coalesced accesses per warp instruction
system.gpu.shader_cores0.lsq.warpCoalescedAccesses::19            9      0.02%     99.93% # Number of coalesced accesses per warp instruction
system.gpu.shader_cores0.lsq.warpCoalescedAccesses::20            0      0.00%     99.93% # Number of coalesced accesses per warp instruction
system.gpu.shader_cores0.lsq.warpCoalescedAccesses::21            3      0.01%     99.94% # Number of coalesced accesses per warp instruction
system.gpu.shader_cores0.lsq.warpCoalescedAccesses::22            6      0.01%     99.95% # Number of coalesced accesses per warp instruction
system.gpu.shader_cores0.lsq.warpCoalescedAccesses::23            0      0.00%     99.95% # Number of coalesced accesses per warp instruction
system.gpu.shader_cores0.lsq.warpCoalescedAccesses::24            0      0.00%     99.95% # Number of coalesced accesses per warp instruction
system.gpu.shader_cores0.lsq.warpCoalescedAccesses::25            6      0.01%     99.96% # Number of coalesced accesses per warp instruction
system.gpu.shader_cores0.lsq.warpCoalescedAccesses::26            3      0.01%     99.96% # Number of coalesced accesses per warp instruction
system.gpu.shader_cores0.lsq.warpCoalescedAccesses::27            0      0.00%     99.96% # Number of coalesced accesses per warp instruction
system.gpu.shader_cores0.lsq.warpCoalescedAccesses::28            0      0.00%     99.96% # Number of coalesced accesses per warp instruction
system.gpu.shader_cores0.lsq.warpCoalescedAccesses::29            0      0.00%     99.96% # Number of coalesced accesses per warp instruction
system.gpu.shader_cores0.lsq.warpCoalescedAccesses::30            6      0.01%     99.97% # Number of coalesced accesses per warp instruction
system.gpu.shader_cores0.lsq.warpCoalescedAccesses::31           12      0.02%     99.99% # Number of coalesced accesses per warp instruction
system.gpu.shader_cores0.lsq.warpCoalescedAccesses::32            3      0.01%    100.00% # Number of coalesced accesses per warp instruction
system.gpu.shader_cores0.lsq.warpCoalescedAccesses::total        59503                       # Number of coalesced accesses per warp instruction
system.gpu.shader_cores0.lsq.warpLatencyRead::samples        58518                       # Latency in cycles for whole warp to finish the read
system.gpu.shader_cores0.lsq.warpLatencyRead::mean    13.773215                       # Latency in cycles for whole warp to finish the read
system.gpu.shader_cores0.lsq.warpLatencyRead::gmean    11.944995                       # Latency in cycles for whole warp to finish the read
system.gpu.shader_cores0.lsq.warpLatencyRead::stdev    16.581391                       # Latency in cycles for whole warp to finish the read
system.gpu.shader_cores0.lsq.warpLatencyRead::0-63        56889     97.22%     97.22% # Latency in cycles for whole warp to finish the read
system.gpu.shader_cores0.lsq.warpLatencyRead::64-127         1467      2.51%     99.72% # Latency in cycles for whole warp to finish the read
system.gpu.shader_cores0.lsq.warpLatencyRead::128-191          121      0.21%     99.93% # Latency in cycles for whole warp to finish the read
system.gpu.shader_cores0.lsq.warpLatencyRead::192-255           14      0.02%     99.95% # Latency in cycles for whole warp to finish the read
system.gpu.shader_cores0.lsq.warpLatencyRead::256-319            8      0.01%     99.97% # Latency in cycles for whole warp to finish the read
system.gpu.shader_cores0.lsq.warpLatencyRead::320-383            1      0.00%     99.97% # Latency in cycles for whole warp to finish the read
system.gpu.shader_cores0.lsq.warpLatencyRead::384-447           10      0.02%     99.99% # Latency in cycles for whole warp to finish the read
system.gpu.shader_cores0.lsq.warpLatencyRead::448-511            4      0.01%     99.99% # Latency in cycles for whole warp to finish the read
system.gpu.shader_cores0.lsq.warpLatencyRead::512-575            1      0.00%     99.99% # Latency in cycles for whole warp to finish the read
system.gpu.shader_cores0.lsq.warpLatencyRead::576-639            1      0.00%    100.00% # Latency in cycles for whole warp to finish the read
system.gpu.shader_cores0.lsq.warpLatencyRead::640-703            1      0.00%    100.00% # Latency in cycles for whole warp to finish the read
system.gpu.shader_cores0.lsq.warpLatencyRead::704-767            1      0.00%    100.00% # Latency in cycles for whole warp to finish the read
system.gpu.shader_cores0.lsq.warpLatencyRead::768-831            0      0.00%    100.00% # Latency in cycles for whole warp to finish the read
system.gpu.shader_cores0.lsq.warpLatencyRead::832-895            0      0.00%    100.00% # Latency in cycles for whole warp to finish the read
system.gpu.shader_cores0.lsq.warpLatencyRead::896-959            0      0.00%    100.00% # Latency in cycles for whole warp to finish the read
system.gpu.shader_cores0.lsq.warpLatencyRead::960-1023            0      0.00%    100.00% # Latency in cycles for whole warp to finish the read
system.gpu.shader_cores0.lsq.warpLatencyRead::total        58518                       # Latency in cycles for whole warp to finish the read
system.gpu.shader_cores0.lsq.warpLatencyWrite::samples          934                       # Latency in cycles for whole warp to finish the write
system.gpu.shader_cores0.lsq.warpLatencyWrite::mean   327.251606                       # Latency in cycles for whole warp to finish the write
system.gpu.shader_cores0.lsq.warpLatencyWrite::gmean   200.896912                       # Latency in cycles for whole warp to finish the write
system.gpu.shader_cores0.lsq.warpLatencyWrite::stdev   372.634705                       # Latency in cycles for whole warp to finish the write
system.gpu.shader_cores0.lsq.warpLatencyWrite::0-255          631     67.56%     67.56% # Latency in cycles for whole warp to finish the write
system.gpu.shader_cores0.lsq.warpLatencyWrite::256-511           81      8.67%     76.23% # Latency in cycles for whole warp to finish the write
system.gpu.shader_cores0.lsq.warpLatencyWrite::512-767           69      7.39%     83.62% # Latency in cycles for whole warp to finish the write
system.gpu.shader_cores0.lsq.warpLatencyWrite::768-1023           97     10.39%     94.00% # Latency in cycles for whole warp to finish the write
system.gpu.shader_cores0.lsq.warpLatencyWrite::1024-1279           37      3.96%     97.97% # Latency in cycles for whole warp to finish the write
system.gpu.shader_cores0.lsq.warpLatencyWrite::1280-1535           10      1.07%     99.04% # Latency in cycles for whole warp to finish the write
system.gpu.shader_cores0.lsq.warpLatencyWrite::1536-1791            2      0.21%     99.25% # Latency in cycles for whole warp to finish the write
system.gpu.shader_cores0.lsq.warpLatencyWrite::1792-2047            4      0.43%     99.68% # Latency in cycles for whole warp to finish the write
system.gpu.shader_cores0.lsq.warpLatencyWrite::2048-2303            1      0.11%     99.79% # Latency in cycles for whole warp to finish the write
system.gpu.shader_cores0.lsq.warpLatencyWrite::2304-2559            1      0.11%     99.89% # Latency in cycles for whole warp to finish the write
system.gpu.shader_cores0.lsq.warpLatencyWrite::2560-2815            1      0.11%    100.00% # Latency in cycles for whole warp to finish the write
system.gpu.shader_cores0.lsq.warpLatencyWrite::2816-3071            0      0.00%    100.00% # Latency in cycles for whole warp to finish the write
system.gpu.shader_cores0.lsq.warpLatencyWrite::3072-3327            0      0.00%    100.00% # Latency in cycles for whole warp to finish the write
system.gpu.shader_cores0.lsq.warpLatencyWrite::3328-3583            0      0.00%    100.00% # Latency in cycles for whole warp to finish the write
system.gpu.shader_cores0.lsq.warpLatencyWrite::3584-3839            0      0.00%    100.00% # Latency in cycles for whole warp to finish the write
system.gpu.shader_cores0.lsq.warpLatencyWrite::3840-4095            0      0.00%    100.00% # Latency in cycles for whole warp to finish the write
system.gpu.shader_cores0.lsq.warpLatencyWrite::total          934                       # Latency in cycles for whole warp to finish the write
system.gpu.shader_cores0.lsq.warpLatencyFence::samples          573                       # Latency in cycles for whole warp to finish the fence
system.gpu.shader_cores0.lsq.warpLatencyFence::mean    39.205934                       # Latency in cycles for whole warp to finish the fence
system.gpu.shader_cores0.lsq.warpLatencyFence::gmean     6.906476                       # Latency in cycles for whole warp to finish the fence
system.gpu.shader_cores0.lsq.warpLatencyFence::stdev   243.341510                       # Latency in cycles for whole warp to finish the fence
system.gpu.shader_cores0.lsq.warpLatencyFence::0-255          560     97.73%     97.73% # Latency in cycles for whole warp to finish the fence
system.gpu.shader_cores0.lsq.warpLatencyFence::256-511            3      0.52%     98.25% # Latency in cycles for whole warp to finish the fence
system.gpu.shader_cores0.lsq.warpLatencyFence::512-767            1      0.17%     98.43% # Latency in cycles for whole warp to finish the fence
system.gpu.shader_cores0.lsq.warpLatencyFence::768-1023            0      0.00%     98.43% # Latency in cycles for whole warp to finish the fence
system.gpu.shader_cores0.lsq.warpLatencyFence::1024-1279            0      0.00%     98.43% # Latency in cycles for whole warp to finish the fence
system.gpu.shader_cores0.lsq.warpLatencyFence::1280-1535            3      0.52%     98.95% # Latency in cycles for whole warp to finish the fence
system.gpu.shader_cores0.lsq.warpLatencyFence::1536-1791            1      0.17%     99.13% # Latency in cycles for whole warp to finish the fence
system.gpu.shader_cores0.lsq.warpLatencyFence::1792-2047            2      0.35%     99.48% # Latency in cycles for whole warp to finish the fence
system.gpu.shader_cores0.lsq.warpLatencyFence::2048-2303            1      0.17%     99.65% # Latency in cycles for whole warp to finish the fence
system.gpu.shader_cores0.lsq.warpLatencyFence::2304-2559            1      0.17%     99.83% # Latency in cycles for whole warp to finish the fence
system.gpu.shader_cores0.lsq.warpLatencyFence::2560-2815            1      0.17%    100.00% # Latency in cycles for whole warp to finish the fence
system.gpu.shader_cores0.lsq.warpLatencyFence::2816-3071            0      0.00%    100.00% # Latency in cycles for whole warp to finish the fence
system.gpu.shader_cores0.lsq.warpLatencyFence::3072-3327            0      0.00%    100.00% # Latency in cycles for whole warp to finish the fence
system.gpu.shader_cores0.lsq.warpLatencyFence::3328-3583            0      0.00%    100.00% # Latency in cycles for whole warp to finish the fence
system.gpu.shader_cores0.lsq.warpLatencyFence::3584-3839            0      0.00%    100.00% # Latency in cycles for whole warp to finish the fence
system.gpu.shader_cores0.lsq.warpLatencyFence::3840-4095            0      0.00%    100.00% # Latency in cycles for whole warp to finish the fence
system.gpu.shader_cores0.lsq.warpLatencyFence::total          573                       # Latency in cycles for whole warp to finish the fence
system.gpu.shader_cores0.lsq.warpLatencyAtomic::samples           51                       # Latency in cycles for whole warp to finish the atomic
system.gpu.shader_cores0.lsq.warpLatencyAtomic::mean 19715.627451                       # Latency in cycles for whole warp to finish the atomic
system.gpu.shader_cores0.lsq.warpLatencyAtomic::gmean 11803.650630                       # Latency in cycles for whole warp to finish the atomic
system.gpu.shader_cores0.lsq.warpLatencyAtomic::stdev 12607.768673                       # Latency in cycles for whole warp to finish the atomic
system.gpu.shader_cores0.lsq.warpLatencyAtomic::0-4095            7     13.73%     13.73% # Latency in cycles for whole warp to finish the atomic
system.gpu.shader_cores0.lsq.warpLatencyAtomic::4096-8191            5      9.80%     23.53% # Latency in cycles for whole warp to finish the atomic
system.gpu.shader_cores0.lsq.warpLatencyAtomic::8192-12287            5      9.80%     33.33% # Latency in cycles for whole warp to finish the atomic
system.gpu.shader_cores0.lsq.warpLatencyAtomic::12288-16383            5      9.80%     43.14% # Latency in cycles for whole warp to finish the atomic
system.gpu.shader_cores0.lsq.warpLatencyAtomic::16384-20479            4      7.84%     50.98% # Latency in cycles for whole warp to finish the atomic
system.gpu.shader_cores0.lsq.warpLatencyAtomic::20480-24575            5      9.80%     60.78% # Latency in cycles for whole warp to finish the atomic
system.gpu.shader_cores0.lsq.warpLatencyAtomic::24576-28671            5      9.80%     70.59% # Latency in cycles for whole warp to finish the atomic
system.gpu.shader_cores0.lsq.warpLatencyAtomic::28672-32767            5      9.80%     80.39% # Latency in cycles for whole warp to finish the atomic
system.gpu.shader_cores0.lsq.warpLatencyAtomic::32768-36863            5      9.80%     90.20% # Latency in cycles for whole warp to finish the atomic
[...]
system.ruby.L1Cache_Controller.L1_to_L2  |        2009    100.00%    100.00% |           0      0.00%    100.00%
system.ruby.L1Cache_Controller.L1_to_L2::total         2009                      
system.ruby.L1Cache_Controller.Trigger_L2_to_L1D |         662    100.00%    100.00% |           0      0.00%    100.00%
system.ruby.L1Cache_Controller.Trigger_L2_to_L1D::total          662                      
system.ruby.L1Cache_Controller.Trigger_L2_to_L1I |         536    100.00%    100.00% |           0      0.00%    100.00%
system.ruby.L1Cache_Controller.Trigger_L2_to_L1I::total          536                      
system.ruby.L1Cache_Controller.Complete_L2_to_L1 |        1198    100.00%    100.00% |           0      0.00%    100.00%
system.ruby.L1Cache_Controller.Complete_L2_to_L1::total         1198                      
system.ruby.L1Cache_Controller.Other_GETX |        1423     44.18%     44.18% |        1798     55.82%    100.00%
system.ruby.L1Cache_Controller.Other_GETX::total         3221                      
system.ruby.L1Cache_Controller.Other_GETS |         730     27.24%     27.24% |        1950     72.76%    100.00%
system.ruby.L1Cache_Controller.Other_GETS::total         2680                      
system.ruby.L1Cache_Controller.Ack       |        3184    100.00%    100.00% |           0      0.00%    100.00%
system.ruby.L1Cache_Controller.Ack::total         3184                      
system.ruby.L1Cache_Controller.Exclusive_Data |        1595    100.00%    100.00% |           0      0.00%    100.00%
system.ruby.L1Cache_Controller.Exclusive_Data::total         1595                      
system.ruby.L1Cache_Controller.All_acks_no_sharers |        1595    100.00%    100.00% |           0      0.00%    100.00%
system.ruby.L1Cache_Controller.All_acks_no_sharers::total         1595                      
system.ruby.L1Cache_Controller.I.Load    |         657    100.00%    100.00% |           0      0.00%    100.00%
system.ruby.L1Cache_Controller.I.Load::total          657                      
system.ruby.L1Cache_Controller.I.Ifetch  |         558    100.00%    100.00% |           0      0.00%    100.00%
system.ruby.L1Cache_Controller.I.Ifetch::total          558                      
system.ruby.L1Cache_Controller.I.Store   |         375    100.00%    100.00% |           0      0.00%    100.00%
system.ruby.L1Cache_Controller.I.Store::total          375                      
system.ruby.L1Cache_Controller.I.L1_to_L2 |          16    100.00%    100.00% |           0      0.00%    100.00%
system.ruby.L1Cache_Controller.I.L1_to_L2::total           16                      
system.ruby.L1Cache_Controller.I.Trigger_L2_to_L1D |           5    100.00%    100.00% |           0      0.00%    100.00%
system.ruby.L1Cache_Controller.I.Trigger_L2_to_L1D::total            5                      
system.ruby.L1Cache_Controller.I.Other_GETX |        1360     43.07%     43.07% |        1798     56.93%    100.00%
system.ruby.L1Cache_Controller.I.Other_GETX::total         3158                      
system.ruby.L1Cache_Controller.I.Other_GETS |         496     20.28%     20.28% |        1950     79.72%    100.00%
system.ruby.L1Cache_Controller.I.Other_GETS::total         2446                      
system.ruby.L1Cache_Controller.O.Load    |           6    100.00%    100.00% |           0      0.00%    100.00%
system.ruby.L1Cache_Controller.O.Load::total            6                      
system.ruby.L1Cache_Controller.O.Other_GETX |           6    100.00%    100.00% |           0      0.00%    100.00%
system.ruby.L1Cache_Controller.O.Other_GETX::total            6                      
system.ruby.L1Cache_Controller.M.Load    |      125618    100.00%    100.00% |           0      0.00%    100.00%
system.ruby.L1Cache_Controller.M.Load::total       125618                      
system.ruby.L1Cache_Controller.M.Ifetch  |     2359803    100.00%    100.00% |           0      0.00%    100.00%
system.ruby.L1Cache_Controller.M.Ifetch::total      2359803                      
system.ruby.L1Cache_Controller.M.Store   |          40    100.00%    100.00% |           0      0.00%    100.00%
system.ruby.L1Cache_Controller.M.Store::total           40                      
system.ruby.L1Cache_Controller.M.L1_to_L2 |        1648    100.00%    100.00% |           0      0.00%    100.00%
system.ruby.L1Cache_Controller.M.L1_to_L2::total         1648                      
system.ruby.L1Cache_Controller.M.Trigger_L2_to_L1D |         546    100.00%    100.00% |           0      0.00%    100.00%
system.ruby.L1Cache_Controller.M.Trigger_L2_to_L1D::total          546                      
system.ruby.L1Cache_Controller.M.Trigger_L2_to_L1I |         536    100.00%    100.00% |           0      0.00%    100.00%
system.ruby.L1Cache_Controller.M.Trigger_L2_to_L1I::total          536                      
system.ruby.L1Cache_Controller.M.Other_GETX |          47    100.00%    100.00% |           0      0.00%    100.00%
system.ruby.L1Cache_Controller.M.Other_GETX::total           47                      
system.ruby.L1Cache_Controller.M.Other_GETS |           9    100.00%    100.00% |           0      0.00%    100.00%
system.ruby.L1Cache_Controller.M.Other_GETS::total            9                      
system.ruby.L1Cache_Controller.MM.Load   |      180247    100.00%    100.00% |           0      0.00%    100.00%
system.ruby.L1Cache_Controller.MM.Load::total       180247                      
system.ruby.L1Cache_Controller.MM.Store  |      170365    100.00%    100.00% |           0      0.00%    100.00%
system.ruby.L1Cache_Controller.MM.Store::total       170365                      
system.ruby.L1Cache_Controller.MM.L1_to_L2 |         345    100.00%    100.00% |           0      0.00%    100.00%
system.ruby.L1Cache_Controller.MM.L1_to_L2::total          345                      
system.ruby.L1Cache_Controller.MM.Trigger_L2_to_L1D |         111    100.00%    100.00% |           0      0.00%    100.00%
system.ruby.L1Cache_Controller.MM.Trigger_L2_to_L1D::total          111                      
system.ruby.L1Cache_Controller.MM.Other_GETX |          10    100.00%    100.00% |           0      0.00%    100.00%
system.ruby.L1Cache_Controller.MM.Other_GETX::total           10                      
system.ruby.L1Cache_Controller.MM.Other_GETS |         225    100.00%    100.00% |           0      0.00%    100.00%
system.ruby.L1Cache_Controller.MM.Other_GETS::total          225                      
system.ruby.L1Cache_Controller.IR.Load   |           5    100.00%    100.00% |           0      0.00%    100.00%
system.ruby.L1Cache_Controller.IR.Load::total            5                      
system.ruby.L1Cache_Controller.MR.Load   |         545    100.00%    100.00% |           0      0.00%    100.00%
system.ruby.L1Cache_Controller.MR.Load::total          545                      
system.ruby.L1Cache_Controller.MR.Ifetch |         536    100.00%    100.00% |           0      0.00%    100.00%
system.ruby.L1Cache_Controller.MR.Ifetch::total          536                      
system.ruby.L1Cache_Controller.MR.Store  |           1    100.00%    100.00% |           0      0.00%    100.00%
system.ruby.L1Cache_Controller.MR.Store::total            1                      
system.ruby.L1Cache_Controller.MMR.Load  |          51    100.00%    100.00% |           0      0.00%    100.00%
system.ruby.L1Cache_Controller.MMR.Load::total           51                      
system.ruby.L1Cache_Controller.MMR.Store |          60    100.00%    100.00% |           0      0.00%    100.00%
system.ruby.L1Cache_Controller.MMR.Store::total           60                      
system.ruby.L1Cache_Controller.IM.Ack    |         750    100.00%    100.00% |           0      0.00%    100.00%
system.ruby.L1Cache_Controller.IM.Ack::total          750                      
system.ruby.L1Cache_Controller.IM.Exclusive_Data |         375    100.00%    100.00% |           0      0.00%    100.00%
system.ruby.L1Cache_Controller.IM.Exclusive_Data::total          375                      
system.ruby.L1Cache_Controller.M_W.All_acks_no_sharers |        1220    100.00%    100.00% |           0      0.00%    100.00%
system.ruby.L1Cache_Controller.M_W.All_acks_no_sharers::total         1220                      
system.ruby.L1Cache_Controller.MM_W.All_acks_no_sharers |         375    100.00%    100.00% |           0      0.00%    100.00%
system.ruby.L1Cache_Controller.MM_W.All_acks_no_sharers::total          375                      
system.ruby.L1Cache_Controller.IS.Ack    |        2434    100.00%    100.00% |           0      0.00%    100.00%
system.ruby.L1Cache_Controller.IS.Ack::total         2434                      
system.ruby.L1Cache_Controller.IS.Exclusive_Data |        1220    100.00%    100.00% |           0      0.00%    100.00%
system.ruby.L1Cache_Controller.IS.Exclusive_Data::total         1220                      
system.ruby.L1Cache_Controller.IT.Complete_L2_to_L1 |           5    100.00%    100.00% |           0      0.00%    100.00%
system.ruby.L1Cache_Controller.IT.Complete_L2_to_L1::total            5                      
system.ruby.L1Cache_Controller.MT.Complete_L2_to_L1 |        1082    100.00%    100.00% |           0      0.00%    100.00%
system.ruby.L1Cache_Controller.MT.Complete_L2_to_L1::total         1082                      
system.ruby.L1Cache_Controller.MMT.Complete_L2_to_L1 |         111    100.00%    100.00% |           0      0.00%    100.00%
system.ruby.L1Cache_Controller.MMT.Complete_L2_to_L1::total          111                      
system.ruby.GPUL1Cache_Controller.Load   |       60973     28.12%     28.12% |       49203     22.69%     50.82% |       46276     21.34%     72.16% |       60358     27.84%    100.00%
system.ruby.GPUL1Cache_Controller.Load::total       216810                      
system.ruby.GPUL1Cache_Controller.Ifetch |          55     22.27%     22.27% |          58     23.48%     45.75% |          69     27.94%     73.68% |          65     26.32%    100.00%
system.ruby.GPUL1Cache_Controller.Ifetch::total          247                      
system.ruby.GPUL1Cache_Controller.Store  |        2274     22.00%     22.00% |        2517     24.35%     46.34% |        2731     26.42%     72.76% |        2816     27.24%    100.00%
system.ruby.GPUL1Cache_Controller.Store::total        10338                      
system.ruby.GPUL1Cache_Controller.Atomic |         531     11.82%     11.82% |         531     11.82%     23.64% |        1724     38.37%     62.01% |        1707     37.99%    100.00%
system.ruby.GPUL1Cache_Controller.Atomic::total         4493                      
system.ruby.GPUL1Cache_Controller.Data   |        1345     16.98%     16.98% |        2082     26.29%     43.28% |        2561     32.34%     75.62% |        1931     24.38%    100.00%
system.ruby.GPUL1Cache_Controller.Data::total         7919                      
system.ruby.GPUL1Cache_Controller.Replacement |         685     14.84%     14.84% |        1329     28.80%     43.64% |        1597     34.60%     78.24% |        1004     21.76%    100.00%
system.ruby.GPUL1Cache_Controller.Replacement::total         4615                      
system.ruby.GPUL1Cache_Controller.Write_Ack |        2805     18.91%     18.91% |        3048     20.55%     39.46% |        4455     30.04%     69.50% |        4523     30.50%    100.00%
system.ruby.GPUL1Cache_Controller.Write_Ack::total        14831                      
system.ruby.GPUL1Cache_Controller.I.Load |        1290     16.81%     16.81% |        2024     26.38%     43.20% |        2492     32.48%     75.68% |        1866     24.32%    100.00%
system.ruby.GPUL1Cache_Controller.I.Load::total         7672                      
system.ruby.GPUL1Cache_Controller.I.Ifetch |          55     22.27%     22.27% |          58     23.48%     45.75% |          69     27.94%     73.68% |          65     26.32%    100.00%
system.ruby.GPUL1Cache_Controller.I.Ifetch::total          247                      
system.ruby.GPUL1Cache_Controller.I.Store |        1958     22.55%     22.55% |        2110     24.30%     46.85% |        2193     25.26%     72.11% |        2422     27.89%    100.00%
system.ruby.GPUL1Cache_Controller.I.Store::total         8683                      
system.ruby.GPUL1Cache_Controller.I.Atomic |         530     12.89%     12.89% |         530     12.89%     25.78% |        1529     37.19%     62.98% |        1522     37.02%    100.00%
system.ruby.GPUL1Cache_Controller.I.Atomic::total         4111                      
system.ruby.GPUL1Cache_Controller.V.Load |       59683     28.54%     28.54% |       47179     22.56%     51.10% |       43784     20.94%     72.03% |       58492     27.97%    100.00%
system.ruby.GPUL1Cache_Controller.V.Load::total       209138                      
system.ruby.GPUL1Cache_Controller.V.Store |         316     19.09%     19.09% |         407     24.59%     43.69% |         538     32.51%     76.19% |         394     23.81%    100.00%
system.ruby.GPUL1Cache_Controller.V.Store::total         1655                      
system.ruby.GPUL1Cache_Controller.V.Atomic |           1      0.26%      0.26% |           1      0.26%      0.52% |         195     51.05%     51.57% |         185     48.43%    100.00%
system.ruby.GPUL1Cache_Controller.V.Atomic::total          382                      
system.ruby.GPUL1Cache_Controller.V.Replacement |         685     14.84%     14.84% |        1329     28.80%     43.64% |        1597     34.60%     78.24% |        1004     21.76%    100.00%
system.ruby.GPUL1Cache_Controller.V.Replacement::total         4615                      
system.ruby.GPUL1Cache_Controller.IA.Write_Ack |        2274     22.00%     22.00% |        2517     24.35%     46.34% |        2731     26.42%     72.76% |        2816     27.24%    100.00%
system.ruby.GPUL1Cache_Controller.IA.Write_Ack::total        10338                      
system.ruby.GPUL1Cache_Controller.IV.Data |        1345     16.98%     16.98% |        2082     26.29%     43.28% |        2561     32.34%     75.62% |        1931     24.38%    100.00%
system.ruby.GPUL1Cache_Controller.IV.Data::total         7919                      
system.ruby.GPUL1Cache_Controller.I_a.Write_Ack |         531     11.82%     11.82% |         531     11.82%     23.64% |        1724     38.37%     62.01% |        1707     37.99%    100.00%
system.ruby.GPUL1Cache_Controller.I_a.Write_Ack::total         4493                      
system.ruby.GPUL2Cache_Controller.Get            8077      0.00%      0.00%
system.ruby.GPUL2Cache_Controller.Store         14853      0.00%      0.00%
system.ruby.GPUL2Cache_Controller.Other_GETX          798      0.00%      0.00%
system.ruby.GPUL2Cache_Controller.Other_GETS         1644      0.00%      0.00%
system.ruby.GPUL2Cache_Controller.Ack            2566      0.00%      0.00%
system.ruby.GPUL2Cache_Controller.Shared_Data            3      0.00%      0.00%
system.ruby.GPUL2Cache_Controller.Exclusive_Data         1303      0.00%      0.00%
system.ruby.GPUL2Cache_Controller.All_acks            3      0.00%      0.00%
system.ruby.GPUL2Cache_Controller.All_acks_no_sharers         1303      0.00%      0.00%
system.ruby.GPUL2Cache_Controller.I.Get           306      0.00%      0.00%
system.ruby.GPUL2Cache_Controller.I.Store         1000      0.00%      0.00%
system.ruby.GPUL2Cache_Controller.I.Other_GETX          798      0.00%      0.00%
system.ruby.GPUL2Cache_Controller.I.Other_GETS         1445      0.00%      0.00%
system.ruby.GPUL2Cache_Controller.S.Get             4      0.00%      0.00%
system.ruby.GPUL2Cache_Controller.M.Get          3287      0.00%      0.00%
system.ruby.GPUL2Cache_Controller.M.Store          192      0.00%      0.00%
system.ruby.GPUL2Cache_Controller.MM.Get         4319      0.00%      0.00%
system.ruby.GPUL2Cache_Controller.MM.Store        13639      0.00%      0.00%
system.ruby.GPUL2Cache_Controller.MM.Other_GETS          199      0.00%      0.00%
system.ruby.GPUL2Cache_Controller.IM.Store           22      0.00%      0.00%
system.ruby.GPUL2Cache_Controller.IM.Ack         1878      0.00%      0.00%
system.ruby.GPUL2Cache_Controller.IM.Exclusive_Data         1000      0.00%      0.00%
system.ruby.GPUL2Cache_Controller.IS.Get          158      0.00%      0.00%
system.ruby.GPUL2Cache_Controller.IS.Ack          608      0.00%      0.00%
system.ruby.GPUL2Cache_Controller.IS.Shared_Data            3      0.00%      0.00%
system.ruby.GPUL2Cache_Controller.IS.Exclusive_Data          303      0.00%      0.00%
system.ruby.GPUL2Cache_Controller.SS.All_acks            3      0.00%      0.00%
system.ruby.GPUL2Cache_Controller.M_W.Get            3      0.00%      0.00%
system.ruby.GPUL2Cache_Controller.M_W.Ack            1      0.00%      0.00%
system.ruby.GPUL2Cache_Controller.M_W.All_acks_no_sharers          303      0.00%      0.00%
system.ruby.GPUL2Cache_Controller.MM_W.Ack           79      0.00%      0.00%
system.ruby.GPUL2Cache_Controller.MM_W.All_acks_no_sharers         1000      0.00%      0.00%
system.ruby.Directory_Controller.GETX            1375      0.00%      0.00%
system.ruby.Directory_Controller.GETS            1526      0.00%      0.00%
system.ruby.Directory_Controller.UnblockS            3      0.00%      0.00%
system.ruby.Directory_Controller.UnblockM         2897      0.00%      0.00%
system.ruby.Directory_Controller.DMA_READ          424      0.00%      0.00%
system.ruby.Directory_Controller.DMA_WRITE          423      0.00%      0.00%
system.ruby.Directory_Controller.Memory_Data         2849      0.00%      0.00%
system.ruby.Directory_Controller.Memory_Ack          423      0.00%      0.00%
system.ruby.Directory_Controller.Ack             2097      0.00%      0.00%
system.ruby.Directory_Controller.Shared_Data            6      0.00%      0.00%
system.ruby.Directory_Controller.Data               6      0.00%      0.00%
system.ruby.Directory_Controller.Exclusive_Data          432      0.00%      0.00%
system.ruby.Directory_Controller.All_acks_and_shared_data            6      0.00%      0.00%
system.ruby.Directory_Controller.All_acks_and_data_no_sharers          841      0.00%      0.00%
system.ruby.Directory_Controller.NO.GETX           43      0.00%      0.00%
system.ruby.Directory_Controller.NO.GETS            9      0.00%      0.00%
system.ruby.Directory_Controller.NO.DMA_READ          424      0.00%      0.00%
system.ruby.Directory_Controller.NO.DMA_WRITE           14      0.00%      0.00%
system.ruby.Directory_Controller.S.DMA_WRITE            6      0.00%      0.00%
system.ruby.Directory_Controller.E.GETX          1332      0.00%      0.00%
system.ruby.Directory_Controller.E.GETS          1517      0.00%      0.00%
system.ruby.Directory_Controller.E.DMA_WRITE          403      0.00%      0.00%
system.ruby.Directory_Controller.NO_B.UnblockS            3      0.00%      0.00%
system.ruby.Directory_Controller.NO_B.UnblockM         2897      0.00%      0.00%
system.ruby.Directory_Controller.NO_B_W.Memory_Data         2849      0.00%      0.00%
system.ruby.Directory_Controller.NO_DW_B_W.Ack         1249      0.00%      0.00%
system.ruby.Directory_Controller.NO_DW_B_W.Data            6      0.00%      0.00%
system.ruby.Directory_Controller.NO_DW_B_W.Exclusive_Data           14      0.00%      0.00%
system.ruby.Directory_Controller.NO_DW_B_W.All_acks_and_data_no_sharers          423      0.00%      0.00%
system.ruby.Directory_Controller.NO_DR_B_D.Ack          848      0.00%      0.00%
system.ruby.Directory_Controller.NO_DR_B_D.Shared_Data            6      0.00%      0.00%
system.ruby.Directory_Controller.NO_DR_B_D.Exclusive_Data          418      0.00%      0.00%
system.ruby.Directory_Controller.NO_DR_B_D.All_acks_and_shared_data            6      0.00%      0.00%
system.ruby.Directory_Controller.NO_DR_B_D.All_acks_and_data_no_sharers          418      0.00%      0.00%
system.ruby.Directory_Controller.NO_DW_W.Memory_Ack          423      0.00%      0.00%

---------- End Simulation Statistics   ----------
