
---------- Begin Simulation Statistics ----------
sim_seconds                                  0.004095                       # Number of seconds simulated
sim_ticks                                  4095291500                       # Number of ticks simulated
final_tick                                 4095291500                       # Number of ticks from beginning of simulation (restored from checkpoints and never reset)
sim_freq                                 1000000000000                       # Frequency of simulated ticks
host_inst_rate                                  15970                       # Simulator instruction rate (inst/s)
host_op_rate                                    26277                       # Simulator op (including micro ops) rate (op/s)
host_tick_rate                               39508363                       # Simulator tick rate (ticks/s)
host_mem_usage                                4555128                       # Number of bytes of host memory used
host_seconds                                   103.66                       # Real time elapsed on the host
sim_insts                                     1655413                       # Number of instructions simulated
sim_ops                                       2723780                       # Number of ops (including micro ops) simulated
system.voltage_domain.voltage                       1                       # Voltage in Volts
system.clk_domain.clock                          1000                       # Clock period in ticks
system.mem_ctrls.clk_domain.clock                2500                       # Clock period in ticks
system.mem_ctrls.bytes_read::ruby.dir_cntrl0       364672                       # Number of bytes read from this memory
system.mem_ctrls.bytes_read::total             364672                       # Number of bytes read from this memory
system.mem_ctrls.bytes_written::ruby.dir_cntrl0        54144                       # Number of bytes written to this memory
system.mem_ctrls.bytes_written::total           54144                       # Number of bytes written to this memory
system.mem_ctrls.num_reads::ruby.dir_cntrl0         2849                       # Number of read requests responded to by this memory
system.mem_ctrls.num_reads::total                2849                       # Number of read requests responded to by this memory
system.mem_ctrls.num_writes::ruby.dir_cntrl0          423                       # Number of write requests responded to by this memory
system.mem_ctrls.num_writes::total                423                       # Number of write requests responded to by this memory
system.mem_ctrls.bw_read::ruby.dir_cntrl0     89046653                       # Total read bandwidth from this memory (bytes/s)
system.mem_ctrls.bw_read::total              89046653                       # Total read bandwidth from this memory (bytes/s)
system.mem_ctrls.bw_write::ruby.dir_cntrl0     13221037                       # Write bandwidth from this memory (bytes/s)
system.mem_ctrls.bw_write::total             13221037                       # Write bandwidth from this memory (bytes/s)
system.mem_ctrls.bw_total::ruby.dir_cntrl0    102267690                       # Total bandwidth to/from this memory (bytes/s)
system.mem_ctrls.bw_total::total            102267690                       # Total bandwidth to/from this memory (bytes/s)
system.mem_ctrls.memReq                          3272                       # Total number of memory requests
system.mem_ctrls.memRead                         2849                       # Number of memory reads
system.mem_ctrls.memWrite                         423                       # Number of memory writes
system.mem_ctrls.memRefresh                     11346                       # Number of memory refreshes
system.mem_ctrls.memWaitCycles                  46284                       # Delay stalled at the head of the bank queue
system.mem_ctrls.memInputQ                      13425                       # Delay in the input queue
system.mem_ctrls.memBankQ                      167601                       # Delay behind the head of the bank queue
system.mem_ctrls.totalStalls                   227310                       # Total number of stall cycles
system.mem_ctrls.stallsPerReq               69.471271                       # Expected number of stall cycles per request
system.mem_ctrls.memBankBusy                     9837                       # memory stalls due to busy bank
system.mem_ctrls.memBusBusy                     12039                       # memory stalls due to busy bus
system.mem_ctrls.memDataBusBusy                  4015                       # memory stalls due to read read turnaround
system.mem_ctrls.memArbWait                      7905                       # memory stalls due to arbitration
system.mem_ctrls.memNotOld                      12488                       # memory stalls due to anti starvation
system.mem_ctrls.memBankCount            |         123      3.76%      3.76% |          98      3.00%      6.75% |         107      3.27%     10.02% |         109      3.33%     13.36% |         103      3.15%     16.50% |         105      3.21%     19.71% |         100      3.06%     22.77% |          95      2.90%     25.67% |          93      2.84%     28.51% |          92      2.81%     31.33% |          96      2.93%     34.26% |         105      3.21%     37.47% |          98      3.00%     40.46% |         102      3.12%     43.58% |         114      3.48%     47.07% |         127      3.88%     50.95% |         129      3.94%     54.89% |         101      3.09%     57.98% |          95      2.90%     60.88% |          98      3.00%     63.88% |          99      3.03%     66.90% |         101      3.09%     69.99% |          93      2.84%     72.83% |          91      2.78%     75.61% |          94      2.87%     78.48% |          99      3.03%     81.51% |         100      3.06%     84.57% |         102      3.12%     87.68% |          97      2.96%     90.65% |         102      3.12%     93.77% |          99      3.03%     96.79% |         105      3.21%    100.00% # Number of accesses per bank
system.mem_ctrls.memBankCount::total             3272                       # Number of accesses per bank
system.ruby_clk_domain.clock                      500                       # Clock period in ticks
system.ruby.phys_mem.bytes_read::writebacks        49592                       # Number of bytes read from this memory
system.ruby.phys_mem.bytes_read::cpu.inst     18887736                       # Number of bytes read from this memory
system.ruby.phys_mem.bytes_read::cpu.data      2308620                       # Number of bytes read from this memory
system.ruby.phys_mem.bytes_read::gpu.ce         53252                       # Number of bytes read from this memory
system.ruby.phys_mem.bytes_read::gpu.shader_cores0.data      2097280                       # Number of bytes read from this memory
system.ruby.phys_mem.bytes_read::gpu.shader_cores0.inst         1200                       # Number of bytes read from this memory
system.ruby.phys_mem.bytes_read::gpu.shader_cores1.data      1703392                       # Number of bytes read from this memory
system.ruby.phys_mem.bytes_read::gpu.shader_cores1.inst         1392                       # Number of bytes read from this memory
system.ruby.phys_mem.bytes_read::gpu.shader_cores2.data      1667520                       # Number of bytes read from this memory
system.ruby.phys_mem.bytes_read::gpu.shader_cores2.inst         1648                       # Number of bytes read from this memory
system.ruby.phys_mem.bytes_read::gpu.shader_cores3.data      2133408                       # Number of bytes read from this memory
system.ruby.phys_mem.bytes_read::gpu.shader_cores3.inst         1672                       # Number of bytes read from this memory
system.ruby.phys_mem.bytes_read::total       28906712                       # Number of bytes read from this memory
system.ruby.phys_mem.bytes_inst_read::cpu.inst     18887736                       # Number of instructions bytes read from this memory
system.ruby.phys_mem.bytes_inst_read::gpu.shader_cores0.inst         1200                       # Number of instructions bytes read from this memory
system.ruby.phys_mem.bytes_inst_read::gpu.shader_cores1.inst         1392                       # Number of instructions bytes read from this memory
system.ruby.phys_mem.bytes_inst_read::gpu.shader_cores2.inst         1648                       # Number of instructions bytes read from this memory
system.ruby.phys_mem.bytes_inst_read::gpu.shader_cores3.inst         1672                       # Number of instructions bytes read from this memory
system.ruby.phys_mem.bytes_inst_read::total     18893648                       # Number of instructions bytes read from this memory
system.ruby.phys_mem.bytes_written::writebacks        49592                       # Number of bytes written to this memory
system.ruby.phys_mem.bytes_written::cpu.data      1152841                       # Number of bytes written to this memory
system.ruby.phys_mem.bytes_written::gpu.ce        53252                       # Number of bytes written to this memory
system.ruby.phys_mem.bytes_written::gpu.shader_cores0.data        34432                       # Number of bytes written to this memory
system.ruby.phys_mem.bytes_written::gpu.shader_cores1.data        34172                       # Number of bytes written to this memory
system.ruby.phys_mem.bytes_written::gpu.shader_cores2.data        64192                       # Number of bytes written to this memory
system.ruby.phys_mem.bytes_written::gpu.shader_cores3.data        36956                       # Number of bytes written to this memory
system.ruby.phys_mem.bytes_written::total      1425437                       # Number of bytes written to this memory
system.ruby.phys_mem.num_reads::writebacks        12398                       # Number of read requests responded to by this memory
system.ruby.phys_mem.num_reads::cpu.inst      2360967                       # Number of read requests responded to by this memory
system.ruby.phys_mem.num_reads::cpu.data       312532                       # Number of read requests responded to by this memory
system.ruby.phys_mem.num_reads::gpu.ce            424                       # Number of read requests responded to by this memory
system.ruby.phys_mem.num_reads::gpu.shader_cores0.data        61294                       # Number of read requests responded to by this memory
system.ruby.phys_mem.num_reads::gpu.shader_cores0.inst           50                       # Number of read requests responded to by this memory
system.ruby.phys_mem.num_reads::gpu.shader_cores1.data        49007                       # Number of read requests responded to by this memory
system.ruby.phys_mem.num_reads::gpu.shader_cores1.inst           58                       # Number of read requests responded to by this memory
system.ruby.phys_mem.num_reads::gpu.shader_cores2.data        46342                       # Number of read requests responded to by this memory
system.ruby.phys_mem.num_reads::gpu.shader_cores2.inst           69                       # Number of read requests responded to by this memory
system.ruby.phys_mem.num_reads::gpu.shader_cores3.data        60913                       # Number of read requests responded to by this memory
system.ruby.phys_mem.num_reads::gpu.shader_cores3.inst           70                       # Number of read requests responded to by this memory
system.ruby.phys_mem.num_reads::total         2904124                       # Number of read requests responded to by this memory
system.ruby.phys_mem.num_writes::writebacks        12398                       # Number of write requests responded to by this memory
system.ruby.phys_mem.num_writes::cpu.data       165456                       # Number of write requests responded to by this memory
system.ruby.phys_mem.num_writes::gpu.ce           423                       # Number of write requests responded to by this memory
system.ruby.phys_mem.num_writes::gpu.shader_cores0.data         2328                       # Number of write requests responded to by this memory
system.ruby.phys_mem.num_writes::gpu.shader_cores1.data         2368                       # Number of write requests responded to by this memory
system.ruby.phys_mem.num_writes::gpu.shader_cores2.data         2708                       # Number of write requests responded to by this memory
system.ruby.phys_mem.num_writes::gpu.shader_cores3.data         2845                       # Number of write requests responded to by this memory
system.ruby.phys_mem.num_writes::total         188526                       # Number of write requests responded to by this memory
system.ruby.phys_mem.bw_read::writebacks     12109517                       # Total read bandwidth from this memory (bytes/s)
system.ruby.phys_mem.bw_read::cpu.inst     4612061437                       # Total read bandwidth from this memory (bytes/s)
system.ruby.phys_mem.bw_read::cpu.data      563725439                       # Total read bandwidth from this memory (bytes/s)
system.ruby.phys_mem.bw_read::gpu.ce         13003226                       # Total read bandwidth from this memory (bytes/s)
system.ruby.phys_mem.bw_read::gpu.shader_cores0.data    512119833                       # Total read bandwidth from this memory (bytes/s)
system.ruby.phys_mem.bw_read::gpu.shader_cores0.inst       293019                       # Total read bandwidth from this memory (bytes/s)
system.ruby.phys_mem.bw_read::gpu.shader_cores1.data    415939134                       # Total read bandwidth from this memory (bytes/s)
system.ruby.phys_mem.bw_read::gpu.shader_cores1.inst       339903                       # Total read bandwidth from this memory (bytes/s)
system.ruby.phys_mem.bw_read::gpu.shader_cores2.data    407179806                       # Total read bandwidth from this memory (bytes/s)
system.ruby.phys_mem.bw_read::gpu.shader_cores2.inst       402413                       # Total read bandwidth from this memory (bytes/s)
system.ruby.phys_mem.bw_read::gpu.shader_cores3.data    520941672                       # Total read bandwidth from this memory (bytes/s)
system.ruby.phys_mem.bw_read::gpu.shader_cores3.inst       408274                       # Total read bandwidth from this memory (bytes/s)
system.ruby.phys_mem.bw_read::total        7058523673                       # Total read bandwidth from this memory (bytes/s)
system.ruby.phys_mem.bw_inst_read::cpu.inst   4612061437                       # Instruction read bandwidth from this memory (bytes/s)
system.ruby.phys_mem.bw_inst_read::gpu.shader_cores0.inst       293019                       # Instruction read bandwidth from this memory (bytes/s)
system.ruby.phys_mem.bw_inst_read::gpu.shader_cores1.inst       339903                       # Instruction read bandwidth from this memory (bytes/s)
system.ruby.phys_mem.bw_inst_read::gpu.shader_cores2.inst       402413                       # Instruction read bandwidth from this memory (bytes/s)
system.ruby.phys_mem.bw_inst_read::gpu.shader_cores3.inst       408274                       # Instruction read bandwidth from this memory (bytes/s)
system.ruby.phys_mem.bw_inst_read::total   4613505046                       # Instruction read bandwidth from this memory (bytes/s)
system.ruby.phys_mem.bw_write::writebacks     12109517                       # Write bandwidth from this memory (bytes/s)
system.ruby.phys_mem.bw_write::cpu.data     281504015                       # Write bandwidth from this memory (bytes/s)
system.ruby.phys_mem.bw_write::gpu.ce        13003226                       # Write bandwidth from this memory (bytes/s)
system.ruby.phys_mem.bw_write::gpu.shader_cores0.data      8407704                       # Write bandwidth from this memory (bytes/s)
system.ruby.phys_mem.bw_write::gpu.shader_cores1.data      8344217                       # Write bandwidth from this memory (bytes/s)
system.ruby.phys_mem.bw_write::gpu.shader_cores2.data     15674586                       # Write bandwidth from this memory (bytes/s)
system.ruby.phys_mem.bw_write::gpu.shader_cores3.data      9024022                       # Write bandwidth from this memory (bytes/s)
system.ruby.phys_mem.bw_write::total        348067287                       # Write bandwidth from this memory (bytes/s)
system.ruby.phys_mem.bw_total::writebacks     24219033                       # Total bandwidth to/from this memory (bytes/s)
system.ruby.phys_mem.bw_total::cpu.inst    4612061437                       # Total bandwidth to/from this memory (bytes/s)
system.ruby.phys_mem.bw_total::cpu.data     845229454                       # Total bandwidth to/from this memory (bytes/s)
system.ruby.phys_mem.bw_total::gpu.ce        26006452                       # Total bandwidth to/from this memory (bytes/s)
system.ruby.phys_mem.bw_total::gpu.shader_cores0.data    520527538                       # Total bandwidth to/from this memory (bytes/s)
system.ruby.phys_mem.bw_total::gpu.shader_cores0.inst       293019                       # Total bandwidth to/from this memory (bytes/s)
system.ruby.phys_mem.bw_total::gpu.shader_cores1.data    424283351                       # Total bandwidth to/from this memory (bytes/s)
system.ruby.phys_mem.bw_total::gpu.shader_cores1.inst       339903                       # Total bandwidth to/from this memory (bytes/s)
system.ruby.phys_mem.bw_total::gpu.shader_cores2.data    422854393                       # Total bandwidth to/from this memory (bytes/s)
system.ruby.phys_mem.bw_total::gpu.shader_cores2.inst       402413                       # Total bandwidth to/from this memory (bytes/s)
system.ruby.phys_mem.bw_total::gpu.shader_cores3.data    529965694                       # Total bandwidth to/from this memory (bytes/s)
system.ruby.phys_mem.bw_total::gpu.shader_cores3.inst       408274                       # Total bandwidth to/from this memory (bytes/s)
system.ruby.phys_mem.bw_total::total       7406590959                       # Total bandwidth to/from this memory (bytes/s)
system.cpu_voltage_domain.voltage                   1                       # Voltage in Volts
system.cpu_clk_domain.clock                       500                       # Clock period in ticks
system.cpu.apic_clk_domain.clock                 8000                       # Clock period in ticks
system.cpu.workload.num_syscalls                   28                       # Number of system calls
system.cpu.numCycles                          8190583                       # number of cpu cycles simulated
system.cpu.numWorkItemsStarted                      1                       # number of work items this cpu started
system.cpu.numWorkItemsCompleted                    1                       # number of work items this cpu completed
system.cpu.committedInsts                     1655413                       # Number of instructions committed
system.cpu.committedOps                       2723780                       # Number of ops (including micro ops) committed
system.cpu.num_int_alu_accesses               1974670                       # Number of integer alu accesses
system.cpu.num_fp_alu_accesses                1026154                       # Number of float alu accesses
system.cpu.num_func_calls                       31676                       # number of times a function call or return occured
system.cpu.num_conditional_control_insts       149209                       # number of instructions that are conditional controls
system.cpu.num_int_insts                      1974670                       # number of integer instructions
system.cpu.num_fp_insts                       1026154                       # number of float instructions
system.cpu.num_int_register_reads             3737282                       # number of times the integer registers were read
system.cpu.num_int_register_writes            1435223                       # number of times the integer registers were written
system.cpu.num_fp_register_reads              1958134                       # number of times the floating registers were read
system.cpu.num_fp_register_writes              903395                       # number of times the floating registers were written
system.cpu.num_cc_register_reads              1056915                       # number of times the CC registers were read
system.cpu.num_cc_register_writes              673727                       # number of times the CC registers were written
system.cpu.num_mem_refs                        477982                       # number of memory refs
system.cpu.num_load_insts                      312526                       # Number of load instructions
system.cpu.num_store_insts                     165456                       # Number of store instructions
system.cpu.num_idle_cycles               2261305.299448                       # Number of idle cycles
system.cpu.num_busy_cycles               5929277.700552                       # Number of busy cycles
system.cpu.not_idle_fraction                 0.723914                       # Percentage of non-idle cycles
system.cpu.idle_fraction                     0.276086                       # Percentage of idle cycles
system.cpu.Branches                            196564                       # Number of branches fetched
system.cpu.op_class::No_OpClass                  2269      0.08%      0.08% # Class of executed instruction
system.cpu.op_class::IntAlu                   1718550     63.09%     63.18% # Class of executed instruction
system.cpu.op_class::IntMult                    18031      0.66%     63.84% # Class of executed instruction
system.cpu.op_class::IntDiv                      1293      0.05%     63.89% # Class of executed instruction
system.cpu.op_class::FloatAdd                  505655     18.56%     82.45% # Class of executed instruction
system.cpu.op_class::FloatCmp                       0      0.00%     82.45% # Class of executed instruction
system.cpu.op_class::FloatCvt                       0      0.00%     82.45% # Class of executed instruction
system.cpu.op_class::FloatMult                      0      0.00%     82.45% # Class of executed instruction
system.cpu.op_class::FloatDiv                       0      0.00%     82.45% # Class of executed instruction
system.cpu.op_class::FloatSqrt                      0      0.00%     82.45% # Class of executed instruction
system.cpu.op_class::SimdAdd                        0      0.00%     82.45% # Class of executed instruction
system.cpu.op_class::SimdAddAcc                     0      0.00%     82.45% # Class of executed instruction
system.cpu.op_class::SimdAlu                        0      0.00%     82.45% # Class of executed instruction
system.cpu.op_class::SimdCmp                        0      0.00%     82.45% # Class of executed instruction
system.cpu.op_class::SimdCvt                        0      0.00%     82.45% # Class of executed instruction
system.cpu.op_class::SimdMisc                       0      0.00%     82.45% # Class of executed instruction
system.cpu.op_class::SimdMult                       0      0.00%     82.45% # Class of executed instruction
system.cpu.op_class::SimdMultAcc                    0      0.00%     82.45% # Class of executed instruction
system.cpu.op_class::SimdShift                      0      0.00%     82.45% # Class of executed instruction
system.cpu.op_class::SimdShiftAcc                   0      0.00%     82.45% # Class of executed instruction
system.cpu.op_class::SimdSqrt                       0      0.00%     82.45% # Class of executed instruction
system.cpu.op_class::SimdFloatAdd                   0      0.00%     82.45% # Class of executed instruction
system.cpu.op_class::SimdFloatAlu                   0      0.00%     82.45% # Class of executed instruction
system.cpu.op_class::SimdFloatCmp                   0      0.00%     82.45% # Class of executed instruction
system.cpu.op_class::SimdFloatCvt                   0      0.00%     82.45% # Class of executed instruction
system.cpu.op_class::SimdFloatDiv                   0      0.00%     82.45% # Class of executed instruction
system.cpu.op_class::SimdFloatMisc                  0      0.00%     82.45% # Class of executed instruction
system.cpu.op_class::SimdFloatMult                  0      0.00%     82.45% # Class of executed instruction
system.cpu.op_class::SimdFloatMultAcc               0      0.00%     82.45% # Class of executed instruction
system.cpu.op_class::SimdFloatSqrt                  0      0.00%     82.45% # Class of executed instruction
system.cpu.op_class::MemRead                   312526     11.47%     93.93% # Class of executed instruction
system.cpu.op_class::MemWrite                  165456      6.07%    100.00% # Class of executed instruction
system.cpu.op_class::IprAccess                      0      0.00%    100.00% # Class of executed instruction
system.cpu.op_class::InstPrefetch                   0      0.00%    100.00% # Class of executed instruction
system.cpu.op_class::total                    2723780                       # Class of executed instruction
system.gpu.clk_domain.voltage_domain.voltage            1                       # Voltage in Volts
system.gpu.clk_domain.clock                      1429                       # Clock period in ticks
system.gpu.dram_wrapper.clk_domain.clock          541                       # Clock period in ticks
system.gpu.icnt_wrapper.clk_domain.clock         2858                       # Clock period in ticks
system.ruby.delayHist::bucket_size                128                       # delay histogram for all message
system.ruby.delayHist::max_bucket                1279                       # delay histogram for all message
system.ruby.delayHist::samples                  23382                       # delay histogram for all message
system.ruby.delayHist::mean                  2.723719                       # delay histogram for all message
system.ruby.delayHist::stdev                34.916889                       # delay histogram for all message
system.ruby.delayHist                    |       23281     99.57%     99.57% |          17      0.07%     99.64% |          19      0.08%     99.72% |          18      0.08%     99.80% |          18      0.08%     99.88% |          18      0.08%     99.95% |          11      0.05%    100.00% |           0      0.00%    100.00% |           0      0.00%    100.00% |           0      0.00%    100.00% # delay histogram for all message
system.ruby.delayHist::total                    23382                       # delay histogram for all message
system.ruby.outstanding_req_hist::bucket_size            8                      
system.ruby.outstanding_req_hist::max_bucket           79                      
system.ruby.outstanding_req_hist::samples      3072828                      
system.ruby.outstanding_req_hist::mean       1.083811                      
system.ruby.outstanding_req_hist::gmean      1.023043                      
system.ruby.outstanding_req_hist::stdev      1.283134                      
system.ruby.outstanding_req_hist         |     3062412     99.66%     99.66% |        6351      0.21%     99.87% |        1959      0.06%     99.93% |         785      0.03%     99.96% |         563      0.02%     99.98% |         174      0.01%     99.98% |          37      0.00%     99.98% |         417      0.01%    100.00% |         130      0.00%    100.00% |           0      0.00%    100.00%
system.ruby.outstanding_req_hist::total       3072828                      
system.ruby.latency_hist::bucket_size             512                      
system.ruby.latency_hist::max_bucket             5119                      
system.ruby.latency_hist::samples             3072828                      
system.ruby.latency_hist::mean               3.423487                      
system.ruby.latency_hist::gmean              1.048243                      
system.ruby.latency_hist::stdev             43.788542                      
system.ruby.latency_hist                 |     3071830     99.97%     99.97% |         241      0.01%     99.98% |         120      0.00%     99.98% |         160      0.01%     99.98% |         204      0.01%     99.99% |         161      0.01%    100.00% |          65      0.00%    100.00% |          34      0.00%    100.00% |          13      0.00%    100.00% |           0      0.00%    100.00%
system.ruby.latency_hist::total               3072828                      
system.ruby.hit_latency_hist::bucket_size          512                      
system.ruby.hit_latency_hist::max_bucket         5119                      
system.ruby.hit_latency_hist::samples         3058100                      
system.ruby.hit_latency_hist::mean           2.370185                      
system.ruby.hit_latency_hist::gmean          1.021675                      
system.ruby.hit_latency_hist::stdev         40.949487                      
system.ruby.hit_latency_hist             |     3057254     99.97%     99.97% |          90      0.00%     99.98% |         119      0.00%     99.98% |         160      0.01%     99.98% |         204      0.01%     99.99% |         161      0.01%    100.00% |          65      0.00%    100.00% |          34      0.00%    100.00% |          13      0.00%    100.00% |           0      0.00%    100.00%
system.ruby.hit_latency_hist::total           3058100                      
system.ruby.miss_latency_hist::bucket_size          256                      
system.ruby.miss_latency_hist::max_bucket         2559                      
system.ruby.miss_latency_hist::samples          14728                      
system.ruby.miss_latency_hist::mean        222.129617                      
system.ruby.miss_latency_hist::gmean       216.507733                      
system.ruby.miss_latency_hist::stdev        61.707227                      
system.ruby.miss_latency_hist            |       14163     96.16%     96.16% |         413      2.80%     98.97% |         149      1.01%     99.98% |           2      0.01%     99.99% |           0      0.00%     99.99% |           1      0.01%    100.00% |           0      0.00%    100.00% |           0      0.00%    100.00% |           0      0.00%    100.00% |           0      0.00%    100.00%
system.ruby.miss_latency_hist::total            14728                      
system.ruby.L1Cache.incomplete_times                3                      
system.ruby.GPUL2Cache.incomplete_times         12827                      
system.ruby.Directory.incomplete_times            303                      
system.gpu.shader_mmu.numPagefaults                 0                       # Number of Pagefaults
system.gpu.shader_mmu.numPagewalks                 29                       # Number of Pagewalks
system.gpu.shader_mmu.totalRequests                29                       # Total number of requests
system.gpu.shader_mmu.l2hits                        0                       # Hits in the shared L2
system.gpu.shader_mmu.prefetchHits                  0                       # Number of prefetch hits
system.gpu.shader_mmu.numPrefetches                 0                       # Number of prefetchs
system.gpu.shader_mmu.prefetchFaults                0                       # Number of faults caused by prefetches
system.gpu.shader_mmu.pagefaultLatency::samples            0                       # Latency to complete the pagefault
system.gpu.shader_mmu.pagefaultLatency::mean          nan                       # Latency to complete the pagefault
system.gpu.shader_mmu.pagefaultLatency::gmean          nan                       # Latency to complete the pagefault
system.gpu.shader_mmu.pagefaultLatency::stdev          nan                       # Latency to complete the pagefault
system.gpu.shader_mmu.pagefaultLatency::0            0                       # Latency to complete the pagefault
system.gpu.shader_mmu.pagefaultLatency::1            0                       # Latency to complete the pagefault
system.gpu.shader_mmu.pagefaultLatency::2            0                       # Latency to complete the pagefault
system.gpu.shader_mmu.pagefaultLatency::3            0                       # Latency to complete the pagefault
system.gpu.shader_mmu.pagefaultLatency::4            0                       # Latency to complete the pagefault
system.gpu.shader_mmu.pagefaultLatency::5            0                       # Latency to complete the pagefault
system.gpu.shader_mmu.pagefaultLatency::6            0                       # Latency to complete the pagefault
system.gpu.shader_mmu.pagefaultLatency::7            0                       # Latency to complete the pagefault
system.gpu.shader_mmu.pagefaultLatency::8            0                       # Latency to complete the pagefault
system.gpu.shader_mmu.pagefaultLatency::9            0                       # Latency to complete the pagefault
system.gpu.shader_mmu.pagefaultLatency::10            0                       # Latency to complete the pagefault
system.gpu.shader_mmu.pagefaultLatency::11            0                       # Latency to complete the pagefault
system.gpu.shader_mmu.pagefaultLatency::12            0                       # Latency to complete the pagefault
system.gpu.shader_mmu.pagefaultLatency::13            0                       # Latency to complete the pagefault
system.gpu.shader_mmu.pagefaultLatency::14            0                       # Latency to complete the pagefault
system.gpu.shader_mmu.pagefaultLatency::15            0                       # Latency to complete the pagefault
system.gpu.shader_mmu.pagefaultLatency::16            0                       # Latency to complete the pagefault
system.gpu.shader_mmu.pagefaultLatency::17            0                       # Latency to complete the pagefault
system.gpu.shader_mmu.pagefaultLatency::18            0                       # Latency to complete the pagefault
system.gpu.shader_mmu.pagefaultLatency::19            0                       # Latency to complete the pagefault
system.gpu.shader_mmu.pagefaultLatency::20            0                       # Latency to complete the pagefault
system.gpu.shader_mmu.pagefaultLatency::21            0                       # Latency to complete the pagefault
system.gpu.shader_mmu.pagefaultLatency::22            0                       # Latency to complete the pagefault
system.gpu.shader_mmu.pagefaultLatency::23            0                       # Latency to complete the pagefault
system.gpu.shader_mmu.pagefaultLatency::24            0                       # Latency to complete the pagefault
system.gpu.shader_mmu.pagefaultLatency::25            0                       # Latency to complete the pagefault
system.gpu.shader_mmu.pagefaultLatency::26            0                       # Latency to complete the pagefault
system.gpu.shader_mmu.pagefaultLatency::27            0                       # Latency to complete the pagefault
system.gpu.shader_mmu.pagefaultLatency::28            0                       # Latency to complete the pagefault
system.gpu.shader_mmu.pagefaultLatency::29            0                       # Latency to complete the pagefault
system.gpu.shader_mmu.pagefaultLatency::30            0                       # Latency to complete the pagefault
system.gpu.shader_mmu.pagefaultLatency::31            0                       # Latency to complete the pagefault
system.gpu.shader_mmu.pagefaultLatency::total            0                       # Latency to complete the pagefault
system.gpu.shader_mmu.concurrentWalks::samples           29                       # Number of outstanding walks
system.gpu.shader_mmu.concurrentWalks::mean            0                       # Number of outstanding walks
system.gpu.shader_mmu.concurrentWalks::gmean            0                       # Number of outstanding walks
system.gpu.shader_mmu.concurrentWalks::stdev            0                       # Number of outstanding walks
system.gpu.shader_mmu.concurrentWalks::0           29    100.00%    100.00% # Number of outstanding walks
system.gpu.shader_mmu.concurrentWalks::1            0      0.00%    100.00% # Number of outstanding walks
system.gpu.shader_mmu.concurrentWalks::2            0      0.00%    100.00% # Number of outstanding walks
system.gpu.shader_mmu.concurrentWalks::3            0      0.00%    100.00% # Number of outstanding walks
system.gpu.shader_mmu.concurrentWalks::4            0      0.00%    100.00% # Number of outstanding walks
system.gpu.shader_mmu.concurrentWalks::5            0      0.00%    100.00% # Number of outstanding walks
system.gpu.shader_mmu.concurrentWalks::6            0      0.00%    100.00% # Number of outstanding walks
system.gpu.shader_mmu.concurrentWalks::7            0      0.00%    100.00% # Number of outstanding walks
system.gpu.shader_mmu.concurrentWalks::8            0      0.00%    100.00% # Number of outstanding walks
system.gpu.shader_mmu.concurrentWalks::9            0      0.00%    100.00% # Number of outstanding walks
system.gpu.shader_mmu.concurrentWalks::10            0      0.00%    100.00% # Number of outstanding walks
system.gpu.shader_mmu.concurrentWalks::11            0      0.00%    100.00% # Number of outstanding walks
system.gpu.shader_mmu.concurrentWalks::12            0      0.00%    100.00% # Number of outstanding walks
system.gpu.shader_mmu.concurrentWalks::13            0      0.00%    100.00% # Number of outstanding walks
system.gpu.shader_mmu.concurrentWalks::14            0      0.00%    100.00% # Number of outstanding walks
system.gpu.shader_mmu.concurrentWalks::15            0      0.00%    100.00% # Number of outstanding walks
system.gpu.shader_mmu.concurrentWalks::total           29                       # Number of outstanding walks
system.gpu.shader_mmu.pagewalkLatency::samples           29                       # Latency to complete the pagewalk
system.gpu.shader_mmu.pagewalkLatency::mean            0                       # Latency to complete the pagewalk
system.gpu.shader_mmu.pagewalkLatency::gmean            0                       # Latency to complete the pagewalk
system.gpu.shader_mmu.pagewalkLatency::stdev            0                       # Latency to complete the pagewalk
system.gpu.shader_mmu.pagewalkLatency::0           29    100.00%    100.00% # Latency to complete the pagewalk
system.gpu.shader_mmu.pagewalkLatency::1            0      0.00%    100.00% # Latency to complete the pagewalk
system.gpu.shader_mmu.pagewalkLatency::2            0      0.00%    100.00% # Latency to complete the pagewalk
system.gpu.shader_mmu.pagewalkLatency::3            0      0.00%    100.00% # Latency to complete the pagewalk
system.gpu.shader_mmu.pagewalkLatency::4            0      0.00%    100.00% # Latency to complete the pagewalk
system.gpu.shader_mmu.pagewalkLatency::5            0      0.00%    100.00% # Latency to complete the pagewalk
system.gpu.shader_mmu.pagewalkLatency::6            0      0.00%    100.00% # Latency to complete the pagewalk
system.gpu.shader_mmu.pagewalkLatency::7            0      0.00%    100.00% # Latency to complete the pagewalk
system.gpu.shader_mmu.pagewalkLatency::8            0      0.00%    100.00% # Latency to complete the pagewalk
system.gpu.shader_mmu.pagewalkLatency::9            0      0.00%    100.00% # Latency to complete the pagewalk
system.gpu.shader_mmu.pagewalkLatency::10            0      0.00%    100.00% # Latency to complete the pagewalk
system.gpu.shader_mmu.pagewalkLatency::11            0      0.00%    100.00% # Latency to complete the pagewalk
system.gpu.shader_mmu.pagewalkLatency::12            0      0.00%    100.00% # Latency to complete the pagewalk
system.gpu.shader_mmu.pagewalkLatency::13            0      0.00%    100.00% # Latency to complete the pagewalk
system.gpu.shader_mmu.pagewalkLatency::14            0      0.00%    100.00% # Latency to complete the pagewalk
system.gpu.shader_mmu.pagewalkLatency::15            0      0.00%    100.00% # Latency to complete the pagewalk
system.gpu.shader_mmu.pagewalkLatency::16            0      0.00%    100.00% # Latency to complete the pagewalk
system.gpu.shader_mmu.pagewalkLatency::17            0      0.00%    100.00% # Latency to complete the pagewalk
system.gpu.shader_mmu.pagewalkLatency::18            0      0.00%    100.00% # Latency to complete the pagewalk
system.gpu.shader_mmu.pagewalkLatency::19            0      0.00%    100.00% # Latency to complete the pagewalk
system.gpu.shader_mmu.pagewalkLatency::20            0      0.00%    100.00% # Latency to complete the pagewalk
system.gpu.shader_mmu.pagewalkLatency::21            0      0.00%    100.00% # Latency to complete the pagewalk
system.gpu.shader_mmu.pagewalkLatency::22            0      0.00%    100.00% # Latency to complete the pagewalk
system.gpu.shader_mmu.pagewalkLatency::23            0      0.00%    100.00% # Latency to complete the pagewalk
system.gpu.shader_mmu.pagewalkLatency::24            0      0.00%    100.00% # Latency to complete the pagewalk
system.gpu.shader_mmu.pagewalkLatency::25            0      0.00%    100.00% # Latency to complete the pagewalk
system.gpu.shader_mmu.pagewalkLatency::26            0      0.00%    100.00% # Latency to complete the pagewalk
system.gpu.shader_mmu.pagewalkLatency::27            0      0.00%    100.00% # Latency to complete the pagewalk
system.gpu.shader_mmu.pagewalkLatency::28            0      0.00%    100.00% # Latency to complete the pagewalk
system.gpu.shader_mmu.pagewalkLatency::29            0      0.00%    100.00% # Latency to complete the pagewalk
system.gpu.shader_mmu.pagewalkLatency::30            0      0.00%    100.00% # Latency to complete the pagewalk
system.gpu.shader_mmu.pagewalkLatency::31            0      0.00%    100.00% # Latency to complete the pagewalk
system.gpu.shader_mmu.pagewalkLatency::total           29                       # Latency to complete the pagewalk
system.gpu.kernels_started                          9                       # Number of kernels started
system.gpu.kernels_completed                        9                       # Number of kernels completed
system.gpu.ce.device_dtb.hits                       0                       # Number of hits in this TLB
system.gpu.ce.device_dtb.misses                     0                       # Number of misses in this TLB
system.gpu.ce.device_dtb.hitRate                  nan                       # Hit rate for this TLB
system.gpu.ce.host_dtb.hits                       401                       # Number of hits in this TLB
system.gpu.ce.host_dtb.misses                      29                       # Number of misses in this TLB
system.gpu.ce.host_dtb.hitRate               0.932558                       # Hit rate for this TLB
system.gpu.shader_cores0.itb.hits                   0                       # Number of hits in this TLB
system.gpu.shader_cores0.itb.misses                 0                       # Number of misses in this TLB
system.gpu.shader_cores0.itb.hitRate              nan                       # Hit rate for this TLB
system.gpu.shader_cores0.local_loads                0                       # Number of loads from local space
system.gpu.shader_cores0.local_stores               0                       # Number of stores to local space
system.gpu.shader_cores0.shared_loads          363392                       # Number of loads from shared space
system.gpu.shader_cores0.shared_stores          28373                       # Number of stores to shared space
system.gpu.shader_cores0.param_kernel_loads       744568                       # Number of loads from kernel parameter space
system.gpu.shader_cores0.param_local_loads            0                       # Number of loads from local parameter space
system.gpu.shader_cores0.param_local_stores            0                       # Number of stores to local parameter space
system.gpu.shader_cores0.const_loads                0                       # Number of loads from constant space
system.gpu.shader_cores0.tex_loads                  0                       # Number of loads from texture space
system.gpu.shader_cores0.global_loads         1843775                       # Number of loads from global space
system.gpu.shader_cores0.global_stores           8608                       # Number of stores to global space
system.gpu.shader_cores0.surf_loads                 0                       # Number of loads from surface space
system.gpu.shader_cores0.generic_loads              0                       # Number of loads from generic spaces (global, shared, local)
system.gpu.shader_cores0.generic_stores             0                       # Number of stores to generic spaces (global, shared, local)
system.gpu.shader_cores0.inst_cache_requests           50                       # Number of instruction cache requests sent
system.gpu.shader_cores0.inst_cache_retries            0                       # Number of instruction cache retries
system.gpu.shader_cores0.inst_counts::0             0                       # Inst counts: 1: ALU, 2: MAD, 3: CTRL, 4: SFU, 5: MEM, 6: TEX, 7: NOP
system.gpu.shader_cores0.inst_counts::1      11446690                       # Inst counts: 1: ALU, 2: MAD, 3: CTRL, 4: SFU, 5: MEM, 6: TEX, 7: NOP
system.gpu.shader_cores0.inst_counts::2       1826478                       # Inst counts: 1: ALU, 2: MAD, 3: CTRL, 4: SFU, 5: MEM, 6: TEX, 7: NOP
system.gpu.shader_cores0.inst_counts::3       1656931                       # Inst counts: 1: ALU, 2: MAD, 3: CTRL, 4: SFU, 5: MEM, 6: TEX, 7: NOP
system.gpu.shader_cores0.inst_counts::4        247872                       # Inst counts: 1: ALU, 2: MAD, 3: CTRL, 4: SFU, 5: MEM, 6: TEX, 7: NOP
system.gpu.shader_cores0.inst_counts::5       2988716                       # Inst counts: 1: ALU, 2: MAD, 3: CTRL, 4: SFU, 5: MEM, 6: TEX, 7: NOP
system.gpu.shader_cores0.inst_counts::6             0                       # Inst counts: 1: ALU, 2: MAD, 3: CTRL, 4: SFU, 5: MEM, 6: TEX, 7: NOP
system.gpu.shader_cores0.inst_counts::7             0                       # Inst counts: 1: ALU, 2: MAD, 3: CTRL, 4: SFU, 5: MEM, 6: TEX, 7: NOP
system.gpu.shader_cores0.activeCycles          668732                       # Number of cycles this shader was executing a CTA
system.gpu.shader_cores0.notStalledCycles       452049                       # Number of cycles this shader was actually executing at least one instance
system.gpu.shader_cores0.instInstances       18166687                       # Total instructions executed by all PEs in the core
system.gpu.shader_cores0.instPerCycle       27.165871                       # Instruction instances per cycle
system.gpu.shader_cores0.kernels_completed            8                       # Number of kernels completed
system.gpu.shader_cores0.lsq.data_tlb.hits            0                       # Number of hits in this TLB
system.gpu.shader_cores0.lsq.data_tlb.misses            0                       # Number of misses in this TLB
system.gpu.shader_cores0.lsq.data_tlb.hitRate          nan                       # Hit rate for this TLB
system.gpu.shader_cores0.lsq.warpInstBufActive::samples    625412661                       # Histogram of number of active warp inst buffers at a given time
system.gpu.shader_cores0.lsq.warpInstBufActive::mean     4.840371                       # Histogram of number of active warp inst buffers at a given time
system.gpu.shader_cores0.lsq.warpInstBufActive::gmean          nan                       # Histogram of number of active warp inst buffers at a given time
system.gpu.shader_cores0.lsq.warpInstBufActive::stdev     8.981182                       # Histogram of number of active warp inst buffers at a given time
system.gpu.shader_cores0.lsq.warpInstBufActive::0    -85879234    -13.73%    -13.73% # Histogram of number of active warp inst buffers at a given time
system.gpu.shader_cores0.lsq.warpInstBufActive::1    301133170     48.15%     34.42% # Histogram of number of active warp inst buffers at a given time
system.gpu.shader_cores0.lsq.warpInstBufActive::2    196663267     31.45%     65.86% # Histogram of number of active warp inst buffers at a given time
system.gpu.shader_cores0.lsq.warpInstBufActive::3     84258127     13.47%     79.34% # Histogram of number of active warp inst buffers at a given time
system.gpu.shader_cores0.lsq.warpInstBufActive::4     31928147      5.11%     84.44% # Histogram of number of active warp inst buffers at a given time
system.gpu.shader_cores0.lsq.warpInstBufActive::5     14300003      2.29%     86.73% # Histogram of number of active warp inst buffers at a given time
system.gpu.shader_cores0.lsq.warpInstBufActive::6      8291058      1.33%     88.05% # Histogram of number of active warp inst buffers at a given time
system.gpu.shader_cores0.lsq.warpInstBufActive::7      6447648      1.03%     89.08% # Histogram of number of active warp inst buffers at a given time
system.gpu.shader_cores0.lsq.warpInstBufActive::8      6669143      1.07%     90.15% # Histogram of number of active warp inst buffers at a given time
system.gpu.shader_cores0.lsq.warpInstBufActive::9      3482473      0.56%     90.71% # Histogram of number of active warp inst buffers at a given time
system.gpu.shader_cores0.lsq.warpInstBufActive::10      2583632      0.41%     91.12% # Histogram of number of active warp inst buffers at a given time
system.gpu.shader_cores0.lsq.warpInstBufActive::11      2133497      0.34%     91.46% # Histogram of number of active warp inst buffers at a given time
system.gpu.shader_cores0.lsq.warpInstBufActive::12      1987739      0.32%     91.78% # Histogram of number of active warp inst buffers at a given time
system.gpu.shader_cores0.lsq.warpInstBufActive::13      1877706      0.30%     92.08% # Histogram of number of active warp inst buffers at a given time
system.gpu.shader_cores0.lsq.warpInstBufActive::14      1354692      0.22%     92.30% # Histogram of number of active warp inst buffers at a given time
system.gpu.shader_cores0.lsq.warpInstBufActive::15      1539033      0.25%     92.54% # Histogram of number of active warp inst buffers at a given time
system.gpu.shader_cores0.lsq.warpInstBufActive::16      1840552      0.29%     92.84% # Histogram of number of active warp inst buffers at a given time
system.gpu.shader_cores0.lsq.warpInstBufActive::17      1819117      0.29%     93.13% # Histogram of number of active warp inst buffers at a given time
system.gpu.shader_cores0.lsq.warpInstBufActive::18      1356121      0.22%     93.34% # Histogram of number of active warp inst buffers at a given time
system.gpu.shader_cores0.lsq.warpInstBufActive::19      1310393      0.21%     93.55% # Histogram of number of active warp inst buffers at a given time
system.gpu.shader_cores0.lsq.warpInstBufActive::20      1681933      0.27%     93.82% # Histogram of number of active warp inst buffers at a given time
system.gpu.shader_cores0.lsq.warpInstBufActive::21      1276097      0.20%     94.03% # Histogram of number of active warp inst buffers at a given time
system.gpu.shader_cores0.lsq.warpInstBufActive::22      1290387      0.21%     94.23% # Histogram of number of active warp inst buffers at a given time
system.gpu.shader_cores0.lsq.warpInstBufActive::23      1276097      0.20%     94.44% # Histogram of number of active warp inst buffers at a given time
system.gpu.shader_cores0.lsq.warpInstBufActive::24      1374698      0.22%     94.66% # Histogram of number of active warp inst buffers at a given time
system.gpu.shader_cores0.lsq.warpInstBufActive::25      1251804      0.20%     94.86% # Histogram of number of active warp inst buffers at a given time
system.gpu.shader_cores0.lsq.warpInstBufActive::26      1280384      0.20%     95.06% # Histogram of number of active warp inst buffers at a given time
system.gpu.shader_cores0.lsq.warpInstBufActive::27      1251804      0.20%     95.26% # Histogram of number of active warp inst buffers at a given time
system.gpu.shader_cores0.lsq.warpInstBufActive::28      1260378      0.20%     95.46% # Histogram of number of active warp inst buffers at a given time
system.gpu.shader_cores0.lsq.warpInstBufActive::29      1270381      0.20%     95.67% # Histogram of number of active warp inst buffers at a given time
system.gpu.shader_cores0.lsq.warpInstBufActive::30      1261807      0.20%     95.87% # Histogram of number of active warp inst buffers at a given time
system.gpu.shader_cores0.lsq.warpInstBufActive::31      1266094      0.20%     96.07% # Histogram of number of active warp inst buffers at a given time
system.gpu.shader_cores0.lsq.warpInstBufActive::32      1420426      0.23%     96.30% # Histogram of number of active warp inst buffers at a given time
system.gpu.shader_cores0.lsq.warpInstBufActive::33      1251804      0.20%     96.50% # Histogram of number of active warp inst buffers at a given time
system.gpu.shader_cores0.lsq.warpInstBufActive::34      1266094      0.20%     96.70% # Histogram of number of active warp inst buffers at a given time
system.gpu.shader_cores0.lsq.warpInstBufActive::35      1258949      0.20%     96.90% # Histogram of number of active warp inst buffers at a given time
system.gpu.shader_cores0.lsq.warpInstBufActive::36      1274668      0.20%     97.11% # Histogram of number of active warp inst buffers at a given time
system.gpu.shader_cores0.lsq.warpInstBufActive::37      1246088      0.20%     97.30% # Histogram of number of active warp inst buffers at a given time
system.gpu.shader_cores0.lsq.warpInstBufActive::38      1256091      0.20%     97.51% # Histogram of number of active warp inst buffers at a given time
system.gpu.shader_cores0.lsq.warpInstBufActive::39      1236085      0.20%     97.70% # Histogram of number of active warp inst buffers at a given time
system.gpu.shader_cores0.lsq.warpInstBufActive::40      1240372      0.20%     97.90% # Histogram of number of active warp inst buffers at a given time
system.gpu.shader_cores0.lsq.warpInstBufActive::41      1238943      0.20%     98.10% # Histogram of number of active warp inst buffers at a given time
system.gpu.shader_cores0.lsq.warpInstBufActive::42      1247517      0.20%     98.30% # Histogram of number of active warp inst buffers at a given time
system.gpu.shader_cores0.lsq.warpInstBufActive::43      1231798      0.20%     98.50% # Histogram of number of active warp inst buffers at a given time
system.gpu.shader_cores0.lsq.warpInstBufActive::44      1333257      0.21%     98.71% # Histogram of number of active warp inst buffers at a given time
system.gpu.shader_cores0.lsq.warpInstBufActive::45      1244659      0.20%     98.91% # Histogram of number of active warp inst buffers at a given time
system.gpu.shader_cores0.lsq.warpInstBufActive::46      1240372      0.20%     99.11% # Histogram of number of active warp inst buffers at a given time
system.gpu.shader_cores0.lsq.warpInstBufActive::47      1261807      0.20%     99.31% # Histogram of number of active warp inst buffers at a given time
system.gpu.shader_cores0.lsq.warpInstBufActive::48      1211792      0.19%     99.50% # Histogram of number of active warp inst buffers at a given time
system.gpu.shader_cores0.lsq.warpInstBufActive::49         5716      0.00%     99.50% # Histogram of number of active warp inst buffers at a given time
system.gpu.shader_cores0.lsq.warpInstBufActive::50         8574      0.00%     99.50% # Histogram of number of active warp inst buffers at a given time
system.gpu.shader_cores0.lsq.warpInstBufActive::51        18577      0.00%     99.51% # Histogram of number of active warp inst buffers at a given time
system.gpu.shader_cores0.lsq.warpInstBufActive::52        11432      0.00%     99.51% # Histogram of number of active warp inst buffers at a given time
system.gpu.shader_cores0.lsq.warpInstBufActive::53        12861      0.00%     99.51% # Histogram of number of active warp inst buffers at a given time
system.gpu.shader_cores0.lsq.warpInstBufActive::54         5716      0.00%     99.51% # Histogram of number of active warp inst buffers at a given time
system.gpu.shader_cores0.lsq.warpInstBufActive::55        22864      0.00%     99.52% # Histogram of number of active warp inst buffers at a given time
system.gpu.shader_cores0.lsq.warpInstBufActive::56         8574      0.00%     99.52% # Histogram of number of active warp inst buffers at a given time
system.gpu.shader_cores0.lsq.warpInstBufActive::57        61447      0.01%     99.53% # Histogram of number of active warp inst buffers at a given time
system.gpu.shader_cores0.lsq.warpInstBufActive::58        32867      0.01%     99.53% # Histogram of number of active warp inst buffers at a given time
system.gpu.shader_cores0.lsq.warpInstBufActive::59        34296      0.01%     99.54% # Histogram of number of active warp inst buffers at a given time
system.gpu.shader_cores0.lsq.warpInstBufActive::60       178625      0.03%     99.57% # Histogram of number of active warp inst buffers at a given time
system.gpu.shader_cores0.lsq.warpInstBufActive::61        25722      0.00%     99.57% # Histogram of number of active warp inst buffers at a given time
system.gpu.shader_cores0.lsq.warpInstBufActive::62        40012      0.01%     99.58% # Histogram of number of active warp inst buffers at a given time
system.gpu.shader_cores0.lsq.warpInstBufActive::63       215779      0.03%     99.61% # Histogram of number of active warp inst buffers at a given time
system.gpu.shader_cores0.lsq.warpInstBufActive::64      2430729      0.39%    100.00% # Histogram of number of active warp inst buffers at a given time
system.gpu.shader_cores0.lsq.warpInstBufActive::total    625412661                       # Histogram of number of active warp inst buffers at a given time
system.gpu.shader_cores0.lsq.cacheAccesses     0.174307                       # Average number of concurrent outstanding cache accesses
system.gpu.shader_cores0.lsq.writebackBlockedCycles         8632                       # Number of cycles blocked for core writeback stage
system.gpu.shader_cores0.lsq.mshrHitQueued         2346                       # Number of hits on blocked lines in MSHRs
system.gpu.shader_cores0.lsq.mshrsFullCycles            0                       # Number of cycles stalled waiting for an MSHR
system.gpu.shader_cores0.lsq.mshrsFullCount            0                       # Number of times MSHRs filled
system.gpu.shader_cores0.lsq.warpCoalescedAccesses::samples        59547                       # Number of coalesced accesses per warp instruction
system.gpu.shader_cores0.lsq.warpCoalescedAccesses::mean     1.077351                       # Number of coalesced accesses per warp instruction
system.gpu.shader_cores0.lsq.warpCoalescedAccesses::gmean     1.025810                       # Number of coalesced accesses per warp instruction
system.gpu.shader_cores0.lsq.warpCoalescedAccesses::stdev     0.896218                       # Number of coalesced accesses per warp instruction
system.gpu.shader_cores0.lsq.warpCoalescedAccesses::0            0      0.00%      0.00% # Number of coalesced accesses per warp instruction
system.gpu.shader_cores0.lsq.warpCoalescedAccesses::1        58460     98.17%     98.17% # Number of coalesced accesses per warp instruction
system.gpu.shader_cores0.lsq.warpCoalescedAccesses::2          301      0.51%     98.68% # Number of coalesced accesses per warp instruction
system.gpu.shader_cores0.lsq.warpCoalescedAccesses::3          239      0.40%     99.08% # Number of coalesced accesses per warp instruction
system.gpu.shader_cores0.lsq.warpCoalescedAccesses::4          112      0.19%     99.27% # Number of coalesced accesses per warp instruction
system.gpu.shader_cores0.lsq.warpCoalescedAccesses::5          114      0.19%     99.46% # Number of coalesced accesses per warp instruction
system.gpu.shader_cores0.lsq.warpCoalescedAccesses::6           86      0.14%     99.61% # Number of coalesced accesses per warp instruction
system.gpu.shader_cores0.lsq.warpCoalescedAccesses::7           68      0.11%     99.72% # Number of coalesced accesses per warp instruction
system.gpu.shader_cores0.lsq.warpCoalescedAccesses::8           48      0.08%     99.80% # Number of coalesced accesses per warp instruction
system.gpu.shader_cores0.lsq.warpCoalescedAccesses::9           20      0.03%     99.83% # Number of coalesced accesses per warp instruction
system.gpu.shader_cores0.lsq.warpCoalescedAccesses::10            3      0.01%     99.84% # Number of coalesced accesses per warp instruction
system.gpu.shader_cores0.lsq.warpCoalescedAccesses::11           48      0.08%     99.92% # Number of coalesced accesses per warp instruction
system.gpu.shader_cores0.lsq.warpCoalescedAccesses::12            0      0.00%     99.92% # Number of coalesced accesses per warp instruction
system.gpu.shader_cores0.lsq.warpCoalescedAccesses::13            0      0.00%     99.92% # Number of coalesced accesses per warp instruction
system.gpu.shader_cores0.lsq.warpCoalescedAccesses::14            0      0.00%     99.92% # Number of coalesced accesses per warp instruction
system.gpu.shader_cores0.lsq.warpCoalescedAccesses::15            0      0.00%     99.92% # Number of coalesced accesses per warp instruction
system.gpu.shader_cores0.lsq.warpCoalescedAccesses::16            0      0.00%     99.92% # Number of coalesced accesses per warp instruction
system.gpu.shader_cores0.lsq.warpCoalescedAccesses::17            0      0.00%     99.92% # Number of coalesced accesses per warp instruction
system.gpu.shader_cores0.lsq.warpCoalescedAccesses::18            0      0.00%     99.92% # Number of coalesced accesses per warp instruction
system.gpu.shader_cores0.lsq.warpCoalescedAccesses::19            9      0.02%     99.93% # Number of coalesced accesses per warp instruction
system.gpu.shader_cores0.lsq.warpCoalescedAccesses::20            0      0.00%     99.93% # Number of coalesced accesses per warp instruction
system.gpu.shader_cores0.lsq.warpCoalescedAccesses::21            3      0.01%     99.94% # Number of coalesced accesses per warp instruction
system.gpu.shader_cores0.lsq.warpCoalescedAccesses::22            6      0.01%     99.95% # Number of coalesced accesses per warp instruction
system.gpu.shader_cores0.lsq.warpCoalescedAccesses::23            0      0.00%     99.95% # Number of coalesced accesses per warp instruction
system.gpu.shader_cores0.lsq.warpCoalescedAccesses::24            0      0.00%     99.95% # Number of coalesced accesses per warp instruction
system.gpu.shader_cores0.lsq.warpCoalescedAccesses::25            6      0.01%     99.96% # Number of coalesced accesses per warp instruction
system.gpu.shader_cores0.lsq.warpCoalescedAccesses::26            3      0.01%     99.96% # Number of coalesced accesses per warp instruction
system.gpu.shader_cores0.lsq.warpCoalescedAccesses::27            0      0.00%     99.96% # Number of coalesced accesses per warp instruction
system.gpu.shader_cores0.lsq.warpCoalescedAccesses::28            0      0.00%     99.96% # Number of coalesced accesses per warp instruction
system.gpu.shader_cores0.lsq.warpCoalescedAccesses::29            0      0.00%     99.96% # Number of coalesced accesses per warp instruction
system.gpu.shader_cores0.lsq.warpCoalescedAccesses::30            6      0.01%     99.97% # Number of coalesced accesses per warp instruction
system.gpu.shader_cores0.lsq.warpCoalescedAccesses::31           12      0.02%     99.99% # Number of coalesced accesses per warp instruction
system.gpu.shader_cores0.lsq.warpCoalescedAccesses::32            3      0.01%    100.00% # Number of coalesced accesses per warp instruction
system.gpu.shader_cores0.lsq.warpCoalescedAccesses::total        59547                       # Number of coalesced accesses per warp instruction
system.gpu.shader_cores0.lsq.warpLatencyRead::samples        58690                       # Latency in cycles for whole warp to finish the read
system.gpu.shader_cores0.lsq.warpLatencyRead::mean    13.626631                       # Latency in cycles for whole warp to finish the read
system.gpu.shader_cores0.lsq.warpLatencyRead::gmean    11.786378                       # Latency in cycles for whole warp to finish the read
system.gpu.shader_cores0.lsq.warpLatencyRead::stdev    17.220567                       # Latency in cycles for whole warp to finish the read
system.gpu.shader_cores0.lsq.warpLatencyRead::0-63        57076     97.25%     97.25% # Latency in cycles for whole warp to finish the read
system.gpu.shader_cores0.lsq.warpLatencyRead::64-127         1455      2.48%     99.73% # Latency in cycles for whole warp to finish the read
system.gpu.shader_cores0.lsq.warpLatencyRead::128-191          103      0.18%     99.90% # Latency in cycles for whole warp to finish the read
system.gpu.shader_cores0.lsq.warpLatencyRead::192-255           12      0.02%     99.93% # Latency in cycles for whole warp to finish the read
system.gpu.shader_cores0.lsq.warpLatencyRead::256-319           19      0.03%     99.96% # Latency in cycles for whole warp to finish the read
system.gpu.shader_cores0.lsq.warpLatencyRead::320-383            7      0.01%     99.97% # Latency in cycles for whole warp to finish the read
system.gpu.shader_cores0.lsq.warpLatencyRead::384-447            9      0.02%     99.98% # Latency in cycles for whole warp to finish the read
system.gpu.shader_cores0.lsq.warpLatencyRead::448-511            3      0.01%     99.99% # Latency in cycles for whole warp to finish the read
system.gpu.shader_cores0.lsq.warpLatencyRead::512-575            3      0.01%     99.99% # Latency in cycles for whole warp to finish the read
system.gpu.shader_cores0.lsq.warpLatencyRead::576-639            1      0.00%    100.00% # Latency in cycles for whole warp to finish the read
system.gpu.shader_cores0.lsq.warpLatencyRead::640-703            2      0.00%    100.00% # Latency in cycles for whole warp to finish the read
system.gpu.shader_cores0.lsq.warpLatencyRead::704-767            0      0.00%    100.00% # Latency in cycles for whole warp to finish the read
system.gpu.shader_cores0.lsq.warpLatencyRead::768-831            0      0.00%    100.00% # Latency in cycles for whole warp to finish the read
system.gpu.shader_cores0.lsq.warpLatencyRead::832-895            0      0.00%    100.00% # Latency in cycles for whole warp to finish the read
system.gpu.shader_cores0.lsq.warpLatencyRead::896-959            0      0.00%    100.00% # Latency in cycles for whole warp to finish the read
system.gpu.shader_cores0.lsq.warpLatencyRead::960-1023            0      0.00%    100.00% # Latency in cycles for whole warp to finish the read
system.gpu.shader_cores0.lsq.warpLatencyRead::total        58690                       # Latency in cycles for whole warp to finish the read
system.gpu.shader_cores0.lsq.warpLatencyWrite::samples          806                       # Latency in cycles for whole warp to finish the write
system.gpu.shader_cores0.lsq.warpLatencyWrite::mean   371.446650                       # Latency in cycles for whole warp to finish the write
system.gpu.shader_cores0.lsq.warpLatencyWrite::gmean   227.132515                       # Latency in cycles for whole warp to finish the write
system.gpu.shader_cores0.lsq.warpLatencyWrite::stdev   410.728638                       # Latency in cycles for whole warp to finish the write
system.gpu.shader_cores0.lsq.warpLatencyWrite::0-255          491     60.92%     60.92% # Latency in cycles for whole warp to finish the write
system.gpu.shader_cores0.lsq.warpLatencyWrite::256-511           98     12.16%     73.08% # Latency in cycles for whole warp to finish the write
system.gpu.shader_cores0.lsq.warpLatencyWrite::512-767           78      9.68%     82.75% # Latency in cycles for whole warp to finish the write
system.gpu.shader_cores0.lsq.warpLatencyWrite::768-1023           75      9.31%     92.06% # Latency in cycles for whole warp to finish the write
system.gpu.shader_cores0.lsq.warpLatencyWrite::1024-1279           37      4.59%     96.65% # Latency in cycles for whole warp to finish the write
system.gpu.shader_cores0.lsq.warpLatencyWrite::1280-1535           13      1.61%     98.26% # Latency in cycles for whole warp to finish the write
system.gpu.shader_cores0.lsq.warpLatencyWrite::1536-1791            5      0.62%     98.88% # Latency in cycles for whole warp to finish the write
system.gpu.shader_cores0.lsq.warpLatencyWrite::1792-2047            3      0.37%     99.26% # Latency in cycles for whole warp to finish the write
system.gpu.shader_cores0.lsq.warpLatencyWrite::2048-2303            3      0.37%     99.63% # Latency in cycles for whole warp to finish the write
system.gpu.shader_cores0.lsq.warpLatencyWrite::2304-2559            1      0.12%     99.75% # Latency in cycles for whole warp to finish the write
system.gpu.shader_cores0.lsq.warpLatencyWrite::2560-2815            1      0.12%     99.88% # Latency in cycles for whole warp to finish the write
system.gpu.shader_cores0.lsq.warpLatencyWrite::2816-3071            1      0.12%    100.00% # Latency in cycles for whole warp to finish the write
system.gpu.shader_cores0.lsq.warpLatencyWrite::3072-3327            0      0.00%    100.00% # Latency in cycles for whole warp to finish the write
system.gpu.shader_cores0.lsq.warpLatencyWrite::3328-3583            0      0.00%    100.00% # Latency in cycles for whole warp to finish the write
system.gpu.shader_cores0.lsq.warpLatencyWrite::3584-3839            0      0.00%    100.00% # Latency in cycles for whole warp to finish the write
system.gpu.shader_cores0.lsq.warpLatencyWrite::3840-4095            0      0.00%    100.00% # Latency in cycles for whole warp to finish the write
system.gpu.shader_cores0.lsq.warpLatencyWrite::total          806                       # Latency in cycles for whole warp to finish the write
system.gpu.shader_cores0.lsq.warpLatencyFence::samples          570                       # Latency in cycles for whole warp to finish the fence
system.gpu.shader_cores0.lsq.warpLatencyFence::mean    42.480702                       # Latency in cycles for whole warp to finish the fence
system.gpu.shader_cores0.lsq.warpLatencyFence::gmean     6.795622                       # Latency in cycles for whole warp to finish the fence
system.gpu.shader_cores0.lsq.warpLatencyFence::stdev   273.861960                       # Latency in cycles for whole warp to finish the fence
system.gpu.shader_cores0.lsq.warpLatencyFence::0-255          559     98.07%     98.07% # Latency in cycles for whole warp to finish the fence
system.gpu.shader_cores0.lsq.warpLatencyFence::256-511            1      0.18%     98.25% # Latency in cycles for whole warp to finish the fence
system.gpu.shader_cores0.lsq.warpLatencyFence::512-767            0      0.00%     98.25% # Latency in cycles for whole warp to finish the fence
system.gpu.shader_cores0.lsq.warpLatencyFence::768-1023            0      0.00%     98.25% # Latency in cycles for whole warp to finish the fence
system.gpu.shader_cores0.lsq.warpLatencyFence::1024-1279            2      0.35%     98.60% # Latency in cycles for whole warp to finish the fence
system.gpu.shader_cores0.lsq.warpLatencyFence::1280-1535            0      0.00%     98.60% # Latency in cycles for whole warp to finish the fence
system.gpu.shader_cores0.lsq.warpLatencyFence::1536-1791            2      0.35%     98.95% # Latency in cycles for whole warp to finish the fence
system.gpu.shader_cores0.lsq.warpLatencyFence::1792-2047            1      0.18%     99.12% # Latency in cycles for whole warp to finish the fence
system.gpu.shader_cores0.lsq.warpLatencyFence::2048-2303            2      0.35%     99.47% # Latency in cycles for whole warp to finish the fence
system.gpu.shader_cores0.lsq.warpLatencyFence::2304-2559            1      0.18%     99.65% # Latency in cycles for whole warp to finish the fence
system.gpu.shader_cores0.lsq.warpLatencyFence::2560-2815            1      0.18%     99.82% # Latency in cycles for whole warp to finish the fence
system.gpu.shader_cores0.lsq.warpLatencyFence::2816-3071            1      0.18%    100.00% # Latency in cycles for whole warp to finish the fence
system.gpu.shader_cores0.lsq.warpLatencyFence::3072-3327            0      0.00%    100.00% # Latency in cycles for whole warp to finish the fence
system.gpu.shader_cores0.lsq.warpLatencyFence::3328-3583            0      0.00%    100.00% # Latency in cycles for whole warp to finish the fence
system.gpu.shader_cores0.lsq.warpLatencyFence::3584-3839            0      0.00%    100.00% # Latency in cycles for whole warp to finish the fence
system.gpu.shader_cores0.lsq.warpLatencyFence::3840-4095            0      0.00%    100.00% # Latency in cycles for whole warp to finish the fence
system.gpu.shader_cores0.lsq.warpLatencyFence::total          570                       # Latency in cycles for whole warp to finish the fence
system.gpu.shader_cores0.lsq.warpLatencyAtomic::samples           51                       # Latency in cycles for whole warp to finish the atomic
system.gpu.shader_cores0.lsq.warpLatencyAtomic::mean 19511.333333                       # Latency in cycles for whole warp to finish the atomic
system.gpu.shader_cores0.lsq.warpLatencyAtomic::gmean 11681.006672                       # Latency in cycles for whole warp to finish the atomic
system.gpu.shader_cores0.lsq.warpLatencyAtomic::stdev 12478.138840                       # Latency in cycles for whole warp to finish the atomic
system.gpu.shader_cores0.lsq.warpLatencyAtomic::0-4095            7     13.73%     13.73% # Latency in cycles for whole warp to finish the atomic
system.gpu.shader_cores0.lsq.warpLatencyAtomic::4096-8191            5      9.80%     23.53% # Latency in cycles for whole warp to finish the atomic
system.gpu.shader_cores0.lsq.warpLatencyAtomic::8192-12287            5      9.80%     33.33% # Latency in cycles for whole warp to finish the atomic
system.gpu.shader_cores0.lsq.warpLatencyAtomic::12288-16383            5      9.80%     43.14% # Latency in cycles for whole warp to finish the atomic
system.gpu.shader_cores0.lsq.warpLatencyAtomic::16384-20479            5      9.80%     52.94% # Latency in cycles for whole warp to finish the atomic
system.gpu.shader_cores0.lsq.warpLatencyAtomic::20480-24575            5      9.80%     62.75% # Latency in cycles for whole warp to finish the atomic
system.gpu.shader_cores0.lsq.warpLatencyAtomic::24576-28671            4      7.84%     70.59% # Latency in cycles for whole warp to finish the atomic
system.gpu.shader_cores0.lsq.warpLatencyAtomic::28672-32767            5      9.80%     80.39% # Latency in cycles for whole warp to finish the atomic
system.gpu.shader_cores0.lsq.warpLatencyAtomic::32768-36863            5      9.80%     90.20% # Latency in cycles for whole warp to finish the atomic
system.gpu.shader_cores0.lsq.warpLatencyAtomic::36864-40959            5      9.80%    100.00% # Latency in cycles for whole warp to finish the atomic
system.gpu.shader_cores0.lsq.warpLatencyAtomic::40960-45055            0      0.00%    100.00% # Latency in cycles for whole warp to finish the atomic
system.gpu.shader_cores0.lsq.warpLatencyAtomic::45056-49151            0      0.00%    100.00% # Latency in cycles for whole warp to finish the atomic
system.gpu.shader_cores0.lsq.warpLatencyAtomic::49152-53247            0      0.00%    100.00% # Latency in cycles for whole warp to finish the atomic
system.gpu.shader_cores0.lsq.warpLatencyAtomic::53248-57343            0      0.00%    100.00% # Latency in cycles for whole warp to finish the atomic
system.gpu.shader_cores0.lsq.warpLatencyAtomic::57344-61439            0      0.00%    100.00% # Latency in cycles for whole warp to finish the atomic
system.gpu.shader_cores0.lsq.warpLatencyAtomic::61440-65535            0      0.00%    100.00% # Latency in cycles for whole warp to finish the atomic
system.gpu.shader_cores0.lsq.warpLatencyAtomic::total           51                       # Latency in cycles for whole warp to finish the atomic
system.gpu.shader_cores0.lsq.tlbMissLatency::samples            0                       # Latency in cycles for TLB miss
system.gpu.shader_cores0.lsq.tlbMissLatency::mean          nan                       # Latency in cycles for TLB miss
system.gpu.shader_cores0.lsq.tlbMissLatency::gmean          nan                       # Latency in cycles for TLB miss
system.gpu.shader_cores0.lsq.tlbMissLatency::stdev          nan                       # Latency in cycles for TLB miss
system.gpu.shader_cores0.lsq.tlbMissLatency::0            0                       # Latency in cycles for TLB miss
system.gpu.shader_cores0.lsq.tlbMissLatency::1            0                       # Latency in cycles for TLB miss
system.gpu.shader_cores0.lsq.tlbMissLatency::2            0                       # Latency in cycles for TLB miss
system.gpu.shader_cores0.lsq.tlbMissLatency::3            0                       # Latency in cycles for TLB miss
system.gpu.shader_cores0.lsq.tlbMissLatency::4            0                       # Latency in cycles for TLB miss
system.gpu.shader_cores0.lsq.tlbMissLatency::5            0                       # Latency in cycles for TLB miss
system.gpu.shader_cores0.lsq.tlbMissLatency::6            0                       # Latency in cycles for TLB miss
system.gpu.shader_cores0.lsq.tlbMissLatency::7            0                       # Latency in cycles for TLB miss
system.gpu.shader_cores0.lsq.tlbMissLatency::8            0                       # Latency in cycles for TLB miss
system.gpu.shader_cores0.lsq.tlbMissLatency::9            0                       # Latency in cycles for TLB miss
system.gpu.shader_cores0.lsq.tlbMissLatency::10            0                       # Latency in cycles for TLB miss
system.gpu.shader_cores0.lsq.tlbMissLatency::11            0                       # Latency in cycles for TLB miss
system.gpu.shader_cores0.lsq.tlbMissLatency::12            0                       # Latency in cycles for TLB miss
system.gpu.shader_cores0.lsq.tlbMissLatency::13            0                       # Latency in cycles for TLB miss
system.gpu.shader_cores0.lsq.tlbMissLatency::14            0                       # Latency in cycles for TLB miss
system.gpu.shader_cores0.lsq.tlbMissLatency::15            0                       # Latency in cycles for TLB miss
system.gpu.shader_cores0.lsq.tlbMissLatency::total            0                       # Latency in cycles for TLB miss
system.gpu.shader_cores1.itb.hits                   0                       # Number of hits in this TLB
system.gpu.shader_cores1.itb.misses                 0                       # Number of misses in this TLB
system.gpu.shader_cores1.itb.hitRate              nan                       # Hit rate for this TLB
system.gpu.shader_cores1.local_loads                0                       # Number of loads from local space
system.gpu.shader_cores1.local_stores               0                       # Number of stores to local space
system.gpu.shader_cores1.shared_loads          284007                       # Number of loads from shared space
system.gpu.shader_cores1.shared_stores          27200                       # Number of stores to shared space
system.gpu.shader_cores1.param_kernel_loads       575916                       # Number of loads from kernel parameter space
system.gpu.shader_cores1.param_local_loads            0                       # Number of loads from local parameter space
system.gpu.shader_cores1.param_local_stores            0                       # Number of stores to local parameter space
system.gpu.shader_cores1.const_loads                0                       # Number of loads from constant space
system.gpu.shader_cores1.tex_loads                  0                       # Number of loads from texture space
system.gpu.shader_cores1.global_loads         1414477                       # Number of loads from global space
[...]
system.ruby.Directory_Controller.Shared_Data            6      0.00%      0.00%
system.ruby.Directory_Controller.Data               6      0.00%      0.00%
system.ruby.Directory_Controller.Exclusive_Data          432      0.00%      0.00%
system.ruby.Directory_Controller.All_acks_and_shared_data            6      0.00%      0.00%
system.ruby.Directory_Controller.All_acks_and_data_no_sharers          841      0.00%      0.00%
system.ruby.Directory_Controller.NO.GETX           43      0.00%      0.00%
system.ruby.Directory_Controller.NO.GETS            9      0.00%      0.00%
system.ruby.Directory_Controller.NO.DMA_READ          424      0.00%      0.00%
system.ruby.Directory_Controller.NO.DMA_WRITE           14      0.00%      0.00%
system.ruby.Directory_Controller.S.DMA_WRITE            6      0.00%      0.00%
system.ruby.Directory_Controller.E.GETX          1330      0.00%      0.00%
system.ruby.Directory_Controller.E.GETS          1519      0.00%      0.00%
system.ruby.Directory_Controller.E.DMA_WRITE          403      0.00%      0.00%
system.ruby.Directory_Controller.NO_B.UnblockS            3      0.00%      0.00%
system.ruby.Directory_Controller.NO_B.UnblockM         2897      0.00%      0.00%
system.ruby.Directory_Controller.NO_B_W.Memory_Data         2849      0.00%      0.00%
system.ruby.Directory_Controller.NO_DW_B_W.Ack         1249      0.00%      0.00%
system.ruby.Directory_Controller.NO_DW_B_W.Data            6      0.00%      0.00%
system.ruby.Directory_Controller.NO_DW_B_W.Exclusive_Data           14      0.00%      0.00%
system.ruby.Directory_Controller.NO_DW_B_W.All_acks_and_data_no_sharers          423      0.00%      0.00%
system.ruby.Directory_Controller.NO_DR_B_D.Ack          848      0.00%      0.00%
system.ruby.Directory_Controller.NO_DR_B_D.Shared_Data            6      0.00%      0.00%
system.ruby.Directory_Controller.NO_DR_B_D.Exclusive_Data          418      0.00%      0.00%
system.ruby.Directory_Controller.NO_DR_B_D.All_acks_and_shared_data            6      0.00%      0.00%
system.ruby.Directory_Controller.NO_DR_B_D.All_acks_and_data_no_sharers          418      0.00%      0.00%
system.ruby.Directory_Controller.NO_DW_W.Memory_Ack          423      0.00%      0.00%
system.ruby.L1Cache_Controller.Load      |      307149    100.00%    100.00% |           0      0.00%    100.00%
system.ruby.L1Cache_Controller.Load::total       307149                      
system.ruby.L1Cache_Controller.Ifetch    |     2360967    100.00%    100.00% |           0      0.00%    100.00%
system.ruby.L1Cache_Controller.Ifetch::total      2360967                      
system.ruby.L1Cache_Controller.Store     |      170839    100.00%    100.00% |           0      0.00%    100.00%
system.ruby.L1Cache_Controller.Store::total       170839                      
system.ruby.L1Cache_Controller.L1_to_L2  |        2107    100.00%    100.00% |           0      0.00%    100.00%
system.ruby.L1Cache_Controller.L1_to_L2::total         2107                      
system.ruby.L1Cache_Controller.Trigger_L2_to_L1D |         760    100.00%    100.00% |           0      0.00%    100.00%
system.ruby.L1Cache_Controller.Trigger_L2_to_L1D::total          760                      
system.ruby.L1Cache_Controller.Trigger_L2_to_L1I |         536    100.00%    100.00% |           0      0.00%    100.00%
system.ruby.L1Cache_Controller.Trigger_L2_to_L1I::total          536                      
system.ruby.L1Cache_Controller.Complete_L2_to_L1 |        1296    100.00%    100.00% |           0      0.00%    100.00%
system.ruby.L1Cache_Controller.Complete_L2_to_L1::total         1296                      
system.ruby.L1Cache_Controller.Other_GETX |        1423     44.21%     44.21% |        1796     55.79%    100.00%
system.ruby.L1Cache_Controller.Other_GETX::total         3219                      
system.ruby.L1Cache_Controller.Other_GETS |         730     27.22%     27.22% |        1952     72.78%    100.00%
system.ruby.L1Cache_Controller.Other_GETS::total         2682                      
system.ruby.L1Cache_Controller.Ack       |        3184    100.00%    100.00% |           0      0.00%    100.00%
system.ruby.L1Cache_Controller.Ack::total         3184                      
system.ruby.L1Cache_Controller.Exclusive_Data |        1595    100.00%    100.00% |           0      0.00%    100.00%
system.ruby.L1Cache_Controller.Exclusive_Data::total         1595                      
system.ruby.L1Cache_Controller.All_acks_no_sharers |        1595    100.00%    100.00% |           0      0.00%    100.00%
system.ruby.L1Cache_Controller.All_acks_no_sharers::total         1595                      
system.ruby.L1Cache_Controller.I.Load    |         659    100.00%    100.00% |           0      0.00%    100.00%
system.ruby.L1Cache_Controller.I.Load::total          659                      
system.ruby.L1Cache_Controller.I.Ifetch  |         558    100.00%    100.00% |           0      0.00%    100.00%
system.ruby.L1Cache_Controller.I.Ifetch::total          558                      
system.ruby.L1Cache_Controller.I.Store   |         373    100.00%    100.00% |           0      0.00%    100.00%
system.ruby.L1Cache_Controller.I.Store::total          373                      
system.ruby.L1Cache_Controller.I.L1_to_L2 |          17    100.00%    100.00% |           0      0.00%    100.00%
system.ruby.L1Cache_Controller.I.L1_to_L2::total           17                      
system.ruby.L1Cache_Controller.I.Trigger_L2_to_L1D |           5    100.00%    100.00% |           0      0.00%    100.00%
system.ruby.L1Cache_Controller.I.Trigger_L2_to_L1D::total            5                      
system.ruby.L1Cache_Controller.I.Other_GETX |        1360     43.09%     43.09% |        1796     56.91%    100.00%
system.ruby.L1Cache_Controller.I.Other_GETX::total         3156                      
system.ruby.L1Cache_Controller.I.Other_GETS |         496     20.26%     20.26% |        1952     79.74%    100.00%
system.ruby.L1Cache_Controller.I.Other_GETS::total         2448                      
system.ruby.L1Cache_Controller.O.Load    |           6    100.00%    100.00% |           0      0.00%    100.00%
system.ruby.L1Cache_Controller.O.Load::total            6                      
system.ruby.L1Cache_Controller.O.Other_GETX |           6    100.00%    100.00% |           0      0.00%    100.00%
system.ruby.L1Cache_Controller.O.Other_GETX::total            6                      
system.ruby.L1Cache_Controller.M.Load    |      125530    100.00%    100.00% |           0      0.00%    100.00%
system.ruby.L1Cache_Controller.M.Load::total       125530                      
system.ruby.L1Cache_Controller.M.Ifetch  |     2359873    100.00%    100.00% |           0      0.00%    100.00%
system.ruby.L1Cache_Controller.M.Ifetch::total      2359873                      
system.ruby.L1Cache_Controller.M.Store   |          41    100.00%    100.00% |           0      0.00%    100.00%
system.ruby.L1Cache_Controller.M.Store::total           41                      
system.ruby.L1Cache_Controller.M.L1_to_L2 |        1742    100.00%    100.00% |           0      0.00%    100.00%
system.ruby.L1Cache_Controller.M.L1_to_L2::total         1742                      
system.ruby.L1Cache_Controller.M.Trigger_L2_to_L1D |         642    100.00%    100.00% |           0      0.00%    100.00%
system.ruby.L1Cache_Controller.M.Trigger_L2_to_L1D::total          642                      
system.ruby.L1Cache_Controller.M.Trigger_L2_to_L1I |         536    100.00%    100.00% |           0      0.00%    100.00%
system.ruby.L1Cache_Controller.M.Trigger_L2_to_L1I::total          536                      
system.ruby.L1Cache_Controller.M.Other_GETX |          47    100.00%    100.00% |           0      0.00%    100.00%
system.ruby.L1Cache_Controller.M.Other_GETX::total           47                      
system.ruby.L1Cache_Controller.M.Other_GETS |           9    100.00%    100.00% |           0      0.00%    100.00%
system.ruby.L1Cache_Controller.M.Other_GETS::total            9                      
system.ruby.L1Cache_Controller.MM.Load   |      180254    100.00%    100.00% |           0      0.00%    100.00%
system.ruby.L1Cache_Controller.MM.Load::total       180254                      
system.ruby.L1Cache_Controller.MM.Store  |      170365    100.00%    100.00% |           0      0.00%    100.00%
system.ruby.L1Cache_Controller.MM.Store::total       170365                      
system.ruby.L1Cache_Controller.MM.L1_to_L2 |         348    100.00%    100.00% |           0      0.00%    100.00%
system.ruby.L1Cache_Controller.MM.L1_to_L2::total          348                      
system.ruby.L1Cache_Controller.MM.Trigger_L2_to_L1D |         113    100.00%    100.00% |           0      0.00%    100.00%
system.ruby.L1Cache_Controller.MM.Trigger_L2_to_L1D::total          113                      
system.ruby.L1Cache_Controller.MM.Other_GETX |          10    100.00%    100.00% |           0      0.00%    100.00%
system.ruby.L1Cache_Controller.MM.Other_GETX::total           10                      
system.ruby.L1Cache_Controller.MM.Other_GETS |         225    100.00%    100.00% |           0      0.00%    100.00%
system.ruby.L1Cache_Controller.MM.Other_GETS::total          225                      
system.ruby.L1Cache_Controller.IR.Load   |           5    100.00%    100.00% |           0      0.00%    100.00%
system.ruby.L1Cache_Controller.IR.Load::total            5                      
system.ruby.L1Cache_Controller.MR.Load   |         641    100.00%    100.00% |           0      0.00%    100.00%
system.ruby.L1Cache_Controller.MR.Load::total          641                      
system.ruby.L1Cache_Controller.MR.Ifetch |         536    100.00%    100.00% |           0      0.00%    100.00%
system.ruby.L1Cache_Controller.MR.Ifetch::total          536                      
system.ruby.L1Cache_Controller.MR.Store  |           1    100.00%    100.00% |           0      0.00%    100.00%
system.ruby.L1Cache_Controller.MR.Store::total            1                      
system.ruby.L1Cache_Controller.MMR.Load  |          54    100.00%    100.00% |           0      0.00%    100.00%
system.ruby.L1Cache_Controller.MMR.Load::total           54                      
system.ruby.L1Cache_Controller.MMR.Store |          59    100.00%    100.00% |           0      0.00%    100.00%
system.ruby.L1Cache_Controller.MMR.Store::total           59                      
system.ruby.L1Cache_Controller.IM.Ack    |         746    100.00%    100.00% |           0      0.00%    100.00%
system.ruby.L1Cache_Controller.IM.Ack::total          746                      
system.ruby.L1Cache_Controller.IM.Exclusive_Data |         373    100.00%    100.00% |           0      0.00%    100.00%
system.ruby.L1Cache_Controller.IM.Exclusive_Data::total          373                      
system.ruby.L1Cache_Controller.M_W.All_acks_no_sharers |        1222    100.00%    100.00% |           0      0.00%    100.00%
system.ruby.L1Cache_Controller.M_W.All_acks_no_sharers::total         1222                      
system.ruby.L1Cache_Controller.MM_W.All_acks_no_sharers |         373    100.00%    100.00% |           0      0.00%    100.00%
system.ruby.L1Cache_Controller.MM_W.All_acks_no_sharers::total          373                      
system.ruby.L1Cache_Controller.IS.Ack    |        2438    100.00%    100.00% |           0      0.00%    100.00%
system.ruby.L1Cache_Controller.IS.Ack::total         2438                      
system.ruby.L1Cache_Controller.IS.Exclusive_Data |        1222    100.00%    100.00% |           0      0.00%    100.00%
system.ruby.L1Cache_Controller.IS.Exclusive_Data::total         1222                      
system.ruby.L1Cache_Controller.IT.Complete_L2_to_L1 |           5    100.00%    100.00% |           0      0.00%    100.00%
system.ruby.L1Cache_Controller.IT.Complete_L2_to_L1::total            5                      
system.ruby.L1Cache_Controller.MT.Complete_L2_to_L1 |        1178    100.00%    100.00% |           0      0.00%    100.00%
system.ruby.L1Cache_Controller.MT.Complete_L2_to_L1::total         1178                      
system.ruby.L1Cache_Controller.MMT.Complete_L2_to_L1 |         113    100.00%    100.00% |           0      0.00%    100.00%
system.ruby.L1Cache_Controller.MMT.Complete_L2_to_L1::total          113                      
system.ruby.GPUL1Cache_Controller.Load   |       61294     28.17%     28.17% |       49007     22.53%     50.70% |       46342     21.30%     72.00% |       60913     28.00%    100.00%
system.ruby.GPUL1Cache_Controller.Load::total       217556                      
system.ruby.GPUL1Cache_Controller.Ifetch |          50     20.24%     20.24% |          58     23.48%     43.72% |          69     27.94%     71.66% |          70     28.34%    100.00%
system.ruby.GPUL1Cache_Controller.Ifetch::total          247                      
system.ruby.GPUL1Cache_Controller.Store  |        2328     22.71%     22.71% |        2368     23.10%     45.82% |        2708     26.42%     72.24% |        2845     27.76%    100.00%
system.ruby.GPUL1Cache_Controller.Store::total        10249                      
system.ruby.GPUL1Cache_Controller.Atomic |         531     10.68%     10.68% |         531     10.68%     21.35% |        1956     39.32%     60.68% |        1956     39.32%    100.00%
system.ruby.GPUL1Cache_Controller.Atomic::total         4974                      
system.ruby.GPUL1Cache_Controller.Data   |        1330     16.30%     16.30% |        2199     26.95%     43.25% |        2632     32.26%     75.51% |        1998     24.49%    100.00%
system.ruby.GPUL1Cache_Controller.Data::total         8159                      
system.ruby.GPUL1Cache_Controller.Replacement |         694     14.34%     14.34% |        1491     30.81%     45.15% |        1640     33.89%     79.05% |        1014     20.95%    100.00%
system.ruby.GPUL1Cache_Controller.Replacement::total         4839                      
system.ruby.GPUL1Cache_Controller.Write_Ack |        2859     18.78%     18.78% |        2899     19.04%     37.82% |        4664     30.64%     68.46% |        4801     31.54%    100.00%
system.ruby.GPUL1Cache_Controller.Write_Ack::total        15223                      
system.ruby.GPUL1Cache_Controller.I.Load |        1280     16.18%     16.18% |        2141     27.06%     43.24% |        2563     32.39%     75.63% |        1928     24.37%    100.00%
system.ruby.GPUL1Cache_Controller.I.Load::total         7912                      
system.ruby.GPUL1Cache_Controller.I.Ifetch |          50     20.24%     20.24% |          58     23.48%     43.72% |          69     27.94%     71.66% |          70     28.34%    100.00%
system.ruby.GPUL1Cache_Controller.I.Ifetch::total          247                      
system.ruby.GPUL1Cache_Controller.I.Store |        2029     23.49%     23.49% |        2006     23.23%     46.72% |        2164     25.05%     71.77% |        2438     28.23%    100.00%
system.ruby.GPUL1Cache_Controller.I.Store::total         8637                      
system.ruby.GPUL1Cache_Controller.I.Atomic |         530     11.69%     11.69% |         530     11.69%     23.38% |        1739     38.36%     61.75% |        1734     38.25%    100.00%
system.ruby.GPUL1Cache_Controller.I.Atomic::total         4533                      
system.ruby.GPUL1Cache_Controller.V.Load |       60014     28.63%     28.63% |       46866     22.36%     50.98% |       43779     20.88%     71.86% |       58985     28.14%    100.00%
system.ruby.GPUL1Cache_Controller.V.Load::total       209644                      
system.ruby.GPUL1Cache_Controller.V.Store |         299     18.55%     18.55% |         362     22.46%     41.00% |         544     33.75%     74.75% |         407     25.25%    100.00%
system.ruby.GPUL1Cache_Controller.V.Store::total         1612                      
system.ruby.GPUL1Cache_Controller.V.Atomic |           1      0.23%      0.23% |           1      0.23%      0.45% |         217     49.21%     49.66% |         222     50.34%    100.00%
system.ruby.GPUL1Cache_Controller.V.Atomic::total          441                      
system.ruby.GPUL1Cache_Controller.V.Replacement |         694     14.34%     14.34% |        1491     30.81%     45.15% |        1640     33.89%     79.05% |        1014     20.95%    100.00%
system.ruby.GPUL1Cache_Controller.V.Replacement::total         4839                      
system.ruby.GPUL1Cache_Controller.IA.Write_Ack |        2328     22.71%     22.71% |        2368     23.10%     45.82% |        2708     26.42%     72.24% |        2845     27.76%    100.00%
system.ruby.GPUL1Cache_Controller.IA.Write_Ack::total        10249                      
system.ruby.GPUL1Cache_Controller.IV.Data |        1330     16.30%     16.30% |        2199     26.95%     43.25% |        2632     32.26%     75.51% |        1998     24.49%    100.00%
system.ruby.GPUL1Cache_Controller.IV.Data::total         8159                      
system.ruby.GPUL1Cache_Controller.I_a.Write_Ack |         531     10.68%     10.68% |         531     10.68%     21.35% |        1956     39.32%     60.68% |        1956     39.32%    100.00%
system.ruby.GPUL1Cache_Controller.I_a.Write_Ack::total         4974                      
system.ruby.GPUL2Cache_Controller.Get            8302      0.00%      0.00%
system.ruby.GPUL2Cache_Controller.Store         15240      0.00%      0.00%
system.ruby.GPUL2Cache_Controller.Other_GETX          796      0.00%      0.00%
system.ruby.GPUL2Cache_Controller.Other_GETS         1646      0.00%      0.00%
system.ruby.GPUL2Cache_Controller.Ack            2566      0.00%      0.00%
system.ruby.GPUL2Cache_Controller.Shared_Data            3      0.00%      0.00%
system.ruby.GPUL2Cache_Controller.Exclusive_Data         1303      0.00%      0.00%
system.ruby.GPUL2Cache_Controller.All_acks            3      0.00%      0.00%
system.ruby.GPUL2Cache_Controller.All_acks_no_sharers         1303      0.00%      0.00%
system.ruby.GPUL2Cache_Controller.I.Get           306      0.00%      0.00%
system.ruby.GPUL2Cache_Controller.I.Store         1000      0.00%      0.00%
system.ruby.GPUL2Cache_Controller.I.Other_GETX          796      0.00%      0.00%
system.ruby.GPUL2Cache_Controller.I.Other_GETS         1447      0.00%      0.00%
system.ruby.GPUL2Cache_Controller.S.Get             1      0.00%      0.00%
system.ruby.GPUL2Cache_Controller.M.Get          3224      0.00%      0.00%
system.ruby.GPUL2Cache_Controller.M.Store          192      0.00%      0.00%
system.ruby.GPUL2Cache_Controller.MM.Get         4485      0.00%      0.00%
system.ruby.GPUL2Cache_Controller.MM.Store        14014      0.00%      0.00%
system.ruby.GPUL2Cache_Controller.MM.Other_GETS          199      0.00%      0.00%
system.ruby.GPUL2Cache_Controller.IM.Store           17      0.00%      0.00%
system.ruby.GPUL2Cache_Controller.IM.Ack         1873      0.00%      0.00%
system.ruby.GPUL2Cache_Controller.IM.Exclusive_Data         1000      0.00%      0.00%
system.ruby.GPUL2Cache_Controller.IS.Get          143      0.00%      0.00%
system.ruby.GPUL2Cache_Controller.IS.Ack          609      0.00%      0.00%
system.ruby.GPUL2Cache_Controller.IS.Shared_Data            3      0.00%      0.00%
system.ruby.GPUL2Cache_Controller.IS.Exclusive_Data          303      0.00%      0.00%
system.ruby.GPUL2Cache_Controller.SS.Get            3      0.00%      0.00%
system.ruby.GPUL2Cache_Controller.SS.All_acks            3      0.00%      0.00%
system.ruby.GPUL2Cache_Controller.M_W.Get          140      0.00%      0.00%
system.ruby.GPUL2Cache_Controller.M_W.All_acks_no_sharers          303      0.00%      0.00%
system.ruby.GPUL2Cache_Controller.MM_W.Store           17      0.00%      0.00%
system.ruby.GPUL2Cache_Controller.MM_W.Ack           84      0.00%      0.00%
system.ruby.GPUL2Cache_Controller.MM_W.All_acks_no_sharers         1000      0.00%      0.00%

---------- End Simulation Statistics   ----------
