
---------- Begin Simulation Statistics ----------
sim_seconds                                  0.003950                       # Number of seconds simulated
sim_ticks                                  3950343500                       # Number of ticks simulated
final_tick                                 3950343500                       # Number of ticks from beginning of simulation (restored from checkpoints and never reset)
sim_freq                                 1000000000000                       # Frequency of simulated ticks
host_inst_rate                                  18945                       # Simulator instruction rate (inst/s)
host_op_rate                                    31172                       # Simulator op (including micro ops) rate (op/s)
host_tick_rate                               45209316                       # Simulator tick rate (ticks/s)
host_mem_usage                                4552668                       # Number of bytes of host memory used
host_seconds                                    87.38                       # Real time elapsed on the host
sim_insts                                     1655400                       # Number of instructions simulated
sim_ops                                       2723752                       # Number of ops (including micro ops) simulated
system.voltage_domain.voltage                       1                       # Voltage in Volts
system.clk_domain.clock                          1000                       # Clock period in ticks
system.mem_ctrls.clk_domain.clock                2500                       # Clock period in ticks
system.mem_ctrls.bytes_read::ruby.dir_cntrl0       360960                       # Number of bytes read from this memory
system.mem_ctrls.bytes_read::total             360960                       # Number of bytes read from this memory
system.mem_ctrls.num_reads::ruby.dir_cntrl0         2820                       # Number of read requests responded to by this memory
system.mem_ctrls.num_reads::total                2820                       # Number of read requests responded to by this memory
system.mem_ctrls.bw_read::ruby.dir_cntrl0     91374332                       # Total read bandwidth from this memory (bytes/s)
system.mem_ctrls.bw_read::total              91374332                       # Total read bandwidth from this memory (bytes/s)
system.mem_ctrls.bw_total::ruby.dir_cntrl0     91374332                       # Total bandwidth to/from this memory (bytes/s)
system.mem_ctrls.bw_total::total             91374332                       # Total bandwidth to/from this memory (bytes/s)
system.mem_ctrls.memReq                          2820                       # Total number of memory requests
system.mem_ctrls.memRead                         2820                       # Number of memory reads
system.mem_ctrls.memRefresh                     11017                       # Number of memory refreshes
system.mem_ctrls.memWaitCycles                  24001                       # Delay stalled at the head of the bank queue
system.mem_ctrls.memInputQ                      18339                       # Delay in the input queue
system.mem_ctrls.memBankQ                       74664                       # Delay behind the head of the bank queue
system.mem_ctrls.totalStalls                   117004                       # Total number of stall cycles
system.mem_ctrls.stallsPerReq               41.490780                       # Expected number of stall cycles per request
system.mem_ctrls.memBankBusy                     5522                       # memory stalls due to busy bank
system.mem_ctrls.memBusBusy                      6442                       # memory stalls due to busy bus
system.mem_ctrls.memDataBusBusy                  2497                       # memory stalls due to read read turnaround
system.mem_ctrls.memArbWait                      3939                       # memory stalls due to arbitration
system.mem_ctrls.memNotOld                       5601                       # memory stalls due to anti starvation
system.mem_ctrls.memBankCount            |         100      3.55%      3.55% |          83      2.94%      6.49% |          88      3.12%      9.61% |          89      3.16%     12.77% |          85      3.01%     15.78% |          87      3.09%     18.87% |          82      2.91%     21.77% |          77      2.73%     24.50% |          75      2.66%     27.16% |          74      2.62%     29.79% |          76      2.70%     32.48% |          87      3.09%     35.57% |          80      2.84%     38.40% |          84      2.98%     41.38% |          96      3.40%     44.79% |         109      3.87%     48.65% |          99      3.51%     52.16% |          88      3.12%     55.28% |          86      3.05%     58.33% |          90      3.19%     61.52% |          91      3.23%     64.75% |          93      3.30%     68.05% |          85      3.01%     71.06% |          83      2.94%     74.01% |          86      3.05%     77.06% |          91      3.23%     80.28% |          92      3.26%     83.55% |          94      3.33%     86.88% |          88      3.12%     90.00% |          94      3.33%     93.33% |          91      3.23%     96.56% |          97      3.44%    100.00% # Number of accesses per bank
system.mem_ctrls.memBankCount::total             2820                       # Number of accesses per bank
system.ruby_clk_domain.clock                      500                       # Clock period in ticks
system.ruby.phys_mem.bytes_read::writebacks        45668                       # Number of bytes read from this memory
system.ruby.phys_mem.bytes_read::cpu.inst     18887608                       # Number of bytes read from this memory
system.ruby.phys_mem.bytes_read::cpu.data      2308588                       # Number of bytes read from this memory
system.ruby.phys_mem.bytes_read::gpu.ce         53252                       # Number of bytes read from this memory
system.ruby.phys_mem.bytes_read::gpu.shader_cores0.data      2060192                       # Number of bytes read from this memory
system.ruby.phys_mem.bytes_read::gpu.shader_cores0.inst         1200                       # Number of bytes read from this memory
system.ruby.phys_mem.bytes_read::gpu.shader_cores1.data      1676352                       # Number of bytes read from this memory
system.ruby.phys_mem.bytes_read::gpu.shader_cores1.inst         1392                       # Number of bytes read from this memory
system.ruby.phys_mem.bytes_read::gpu.shader_cores2.data      1632448                       # Number of bytes read from this memory
system.ruby.phys_mem.bytes_read::gpu.shader_cores2.inst         1936                       # Number of bytes read from this memory
system.ruby.phys_mem.bytes_read::gpu.shader_cores3.data      2081120                       # Number of bytes read from this memory
system.ruby.phys_mem.bytes_read::gpu.shader_cores3.inst         1552                       # Number of bytes read from this memory
system.ruby.phys_mem.bytes_read::total       28751308                       # Number of bytes read from this memory
system.ruby.phys_mem.bytes_inst_read::cpu.inst     18887608                       # Number of instructions bytes read from this memory
system.ruby.phys_mem.bytes_inst_read::gpu.shader_cores0.inst         1200                       # Number of instructions bytes read from this memory
system.ruby.phys_mem.bytes_inst_read::gpu.shader_cores1.inst         1392                       # Number of instructions bytes read from this memory
system.ruby.phys_mem.bytes_inst_read::gpu.shader_cores2.inst         1936                       # Number of instructions bytes read from this memory
system.ruby.phys_mem.bytes_inst_read::gpu.shader_cores3.inst         1552                       # Number of instructions bytes read from this memory
system.ruby.phys_mem.bytes_inst_read::total     18893688                       # Number of instructions bytes read from this memory
system.ruby.phys_mem.bytes_written::writebacks        45668                       # Number of bytes written to this memory
system.ruby.phys_mem.bytes_written::cpu.data      1152841                       # Number of bytes written to this memory
system.ruby.phys_mem.bytes_written::gpu.ce        53252                       # Number of bytes written to this memory
system.ruby.phys_mem.bytes_written::gpu.shader_cores0.data        34304                       # Number of bytes written to this memory
system.ruby.phys_mem.bytes_written::gpu.shader_cores1.data        34200                       # Number of bytes written to this memory
system.ruby.phys_mem.bytes_written::gpu.shader_cores2.data        64324                       # Number of bytes written to this memory
system.ruby.phys_mem.bytes_written::gpu.shader_cores3.data        36900                       # Number of bytes written to this memory
system.ruby.phys_mem.bytes_written::total      1421489                       # Number of bytes written to this memory
system.ruby.phys_mem.num_reads::writebacks        11417                       # Number of read requests responded to by this memory
system.ruby.phys_mem.num_reads::cpu.inst      2360951                       # Number of read requests responded to by this memory
system.ruby.phys_mem.num_reads::cpu.data       312528                       # Number of read requests responded to by this memory
system.ruby.phys_mem.num_reads::gpu.ce            424                       # Number of read requests responded to by this memory
system.ruby.phys_mem.num_reads::gpu.shader_cores0.data        61145                       # Number of read requests responded to by this memory
system.ruby.phys_mem.num_reads::gpu.shader_cores0.inst           50                       # Number of read requests responded to by this memory
system.ruby.phys_mem.num_reads::gpu.shader_cores1.data        48896                       # Number of read requests responded to by this memory
system.ruby.phys_mem.num_reads::gpu.shader_cores1.inst           58                       # Number of read requests responded to by this memory
system.ruby.phys_mem.num_reads::gpu.shader_cores2.data        46111                       # Number of read requests responded to by this memory
system.ruby.phys_mem.num_reads::gpu.shader_cores2.inst           81                       # Number of read requests responded to by this memory
system.ruby.phys_mem.num_reads::gpu.shader_cores3.data        60412                       # Number of read requests responded to by this memory
system.ruby.phys_mem.num_reads::gpu.shader_cores3.inst           65                       # Number of read requests responded to by this memory
system.ruby.phys_mem.num_reads::total         2902138                       # Number of read requests responded to by this memory
system.ruby.phys_mem.num_writes::writebacks        11417                       # Number of write requests responded to by this memory
system.ruby.phys_mem.num_writes::cpu.data       165456                       # Number of write requests responded to by this memory
system.ruby.phys_mem.num_writes::gpu.ce           423                       # Number of write requests responded to by this memory
system.ruby.phys_mem.num_writes::gpu.shader_cores0.data         2308                       # Number of write requests responded to by this memory
system.ruby.phys_mem.num_writes::gpu.shader_cores1.data         2444                       # Number of write requests responded to by this memory
system.ruby.phys_mem.num_writes::gpu.shader_cores2.data         2793                       # Number of write requests responded to by this memory
system.ruby.phys_mem.num_writes::gpu.shader_cores3.data         2870                       # Number of write requests responded to by this memory
system.ruby.phys_mem.num_writes::total         187711                       # Number of write requests responded to by this memory
system.ruby.phys_mem.bw_read::writebacks     11560514                       # Total read bandwidth from this memory (bytes/s)
system.ruby.phys_mem.bw_read::cpu.inst     4781257124                       # Total read bandwidth from this memory (bytes/s)
system.ruby.phys_mem.bw_read::cpu.data      584401837                       # Total read bandwidth from this memory (bytes/s)
system.ruby.phys_mem.bw_read::gpu.ce         13480347                       # Total read bandwidth from this memory (bytes/s)
system.ruby.phys_mem.bw_read::gpu.shader_cores0.data    521522242                       # Total read bandwidth from this memory (bytes/s)
system.ruby.phys_mem.bw_read::gpu.shader_cores0.inst       303771                       # Total read bandwidth from this memory (bytes/s)
system.ruby.phys_mem.bw_read::gpu.shader_cores1.data    424356009                       # Total read bandwidth from this memory (bytes/s)
system.ruby.phys_mem.bw_read::gpu.shader_cores1.inst       352374                       # Total read bandwidth from this memory (bytes/s)
system.ruby.phys_mem.bw_read::gpu.shader_cores2.data    413242038                       # Total read bandwidth from this memory (bytes/s)
system.ruby.phys_mem.bw_read::gpu.shader_cores2.inst       490084                       # Total read bandwidth from this memory (bytes/s)
system.ruby.phys_mem.bw_read::gpu.shader_cores3.data    526820009                       # Total read bandwidth from this memory (bytes/s)
system.ruby.phys_mem.bw_read::gpu.shader_cores3.inst       392877                       # Total read bandwidth from this memory (bytes/s)
system.ruby.phys_mem.bw_read::total        7278179227                       # Total read bandwidth from this memory (bytes/s)
system.ruby.phys_mem.bw_inst_read::cpu.inst   4781257124                       # Instruction read bandwidth from this memory (bytes/s)
system.ruby.phys_mem.bw_inst_read::gpu.shader_cores0.inst       303771                       # Instruction read bandwidth from this memory (bytes/s)
system.ruby.phys_mem.bw_inst_read::gpu.shader_cores1.inst       352374                       # Instruction read bandwidth from this memory (bytes/s)
system.ruby.phys_mem.bw_inst_read::gpu.shader_cores2.inst       490084                       # Instruction read bandwidth from this memory (bytes/s)
system.ruby.phys_mem.bw_inst_read::gpu.shader_cores3.inst       392877                       # Instruction read bandwidth from this memory (bytes/s)
system.ruby.phys_mem.bw_inst_read::total   4782796230                       # Instruction read bandwidth from this memory (bytes/s)
system.ruby.phys_mem.bw_write::writebacks     11560514                       # Write bandwidth from this memory (bytes/s)
system.ruby.phys_mem.bw_write::cpu.data     291833103                       # Write bandwidth from this memory (bytes/s)
system.ruby.phys_mem.bw_write::gpu.ce        13480347                       # Write bandwidth from this memory (bytes/s)
system.ruby.phys_mem.bw_write::gpu.shader_cores0.data      8683802                       # Write bandwidth from this memory (bytes/s)
system.ruby.phys_mem.bw_write::gpu.shader_cores1.data      8657475                       # Write bandwidth from this memory (bytes/s)
system.ruby.phys_mem.bw_write::gpu.shader_cores2.data     16283141                       # Write bandwidth from this memory (bytes/s)
system.ruby.phys_mem.bw_write::gpu.shader_cores3.data      9340960                       # Write bandwidth from this memory (bytes/s)
system.ruby.phys_mem.bw_write::total        359839341                       # Write bandwidth from this memory (bytes/s)
system.ruby.phys_mem.bw_total::writebacks     23121027                       # Total bandwidth to/from this memory (bytes/s)
system.ruby.phys_mem.bw_total::cpu.inst    4781257124                       # Total bandwidth to/from this memory (bytes/s)
system.ruby.phys_mem.bw_total::cpu.data     876234940                       # Total bandwidth to/from this memory (bytes/s)
system.ruby.phys_mem.bw_total::gpu.ce        26960693                       # Total bandwidth to/from this memory (bytes/s)
system.ruby.phys_mem.bw_total::gpu.shader_cores0.data    530206044                       # Total bandwidth to/from this memory (bytes/s)
system.ruby.phys_mem.bw_total::gpu.shader_cores0.inst       303771                       # Total bandwidth to/from this memory (bytes/s)
system.ruby.phys_mem.bw_total::gpu.shader_cores1.data    433013484                       # Total bandwidth to/from this memory (bytes/s)
system.ruby.phys_mem.bw_total::gpu.shader_cores1.inst       352374                       # Total bandwidth to/from this memory (bytes/s)
system.ruby.phys_mem.bw_total::gpu.shader_cores2.data    429525179                       # Total bandwidth to/from this memory (bytes/s)
system.ruby.phys_mem.bw_total::gpu.shader_cores2.inst       490084                       # Total bandwidth to/from this memory (bytes/s)
system.ruby.phys_mem.bw_total::gpu.shader_cores3.data    536160969                       # Total bandwidth to/from this memory (bytes/s)
system.ruby.phys_mem.bw_total::gpu.shader_cores3.inst       392877                       # Total bandwidth to/from this memory (bytes/s)
system.ruby.phys_mem.bw_total::total       7638018567                       # Total bandwidth to/from this memory (bytes/s)
system.cpu_voltage_domain.voltage                   1                       # Voltage in Volts
system.cpu_clk_domain.clock                       500                       # Clock period in ticks
system.cpu.apic_clk_domain.clock                 8000                       # Clock period in ticks
system.cpu.workload.num_syscalls                   28                       # Number of system calls
system.cpu.numCycles                          7900687                       # number of cpu cycles simulated
system.cpu.numWorkItemsStarted                      1                       # number of work items this cpu started
system.cpu.numWorkItemsCompleted                    1                       # number of work items this cpu completed
system.cpu.committedInsts                     1655400                       # Number of instructions committed
system.cpu.committedOps                       2723752                       # Number of ops (including micro ops) committed
system.cpu.num_int_alu_accesses               1974642                       # Number of integer alu accesses
system.cpu.num_fp_alu_accesses                1026154                       # Number of float alu accesses
system.cpu.num_func_calls                       31676                       # number of times a function call or return occured
system.cpu.num_conditional_control_insts       149205                       # number of instructions that are conditional controls
system.cpu.num_int_insts                      1974642                       # number of integer instructions
system.cpu.num_fp_insts                       1026154                       # number of float instructions
system.cpu.num_int_register_reads             3737239                       # number of times the integer registers were read
system.cpu.num_int_register_writes            1435200                       # number of times the integer registers were written
system.cpu.num_fp_register_reads              1958134                       # number of times the floating registers were read
system.cpu.num_fp_register_writes              903395                       # number of times the floating registers were written
system.cpu.num_cc_register_reads              1056894                       # number of times the CC registers were read
system.cpu.num_cc_register_writes              673719                       # number of times the CC registers were written
system.cpu.num_mem_refs                        477978                       # number of memory refs
system.cpu.num_load_insts                      312522                       # Number of load instructions
system.cpu.num_store_insts                     165456                       # Number of store instructions
system.cpu.num_idle_cycles               1934820.549510                       # Number of idle cycles
system.cpu.num_busy_cycles               5965866.450490                       # Number of busy cycles
system.cpu.not_idle_fraction                 0.755107                       # Percentage of non-idle cycles
system.cpu.idle_fraction                     0.244893                       # Percentage of idle cycles
system.cpu.Branches                            196559                       # Number of branches fetched
system.cpu.op_class::No_OpClass                  2269      0.08%      0.08% # Class of executed instruction
system.cpu.op_class::IntAlu                   1718526     63.09%     63.18% # Class of executed instruction
system.cpu.op_class::IntMult                    18031      0.66%     63.84% # Class of executed instruction
system.cpu.op_class::IntDiv                      1293      0.05%     63.89% # Class of executed instruction
system.cpu.op_class::FloatAdd                  505655     18.56%     82.45% # Class of executed instruction
system.cpu.op_class::FloatCmp                       0      0.00%     82.45% # Class of executed instruction
system.cpu.op_class::FloatCvt                       0      0.00%     82.45% # Class of executed instruction
system.cpu.op_class::FloatMult                      0      0.00%     82.45% # Class of executed instruction
system.cpu.op_class::FloatDiv                       0      0.00%     82.45% # Class of executed instruction
system.cpu.op_class::FloatSqrt                      0      0.00%     82.45% # Class of executed instruction
system.cpu.op_class::SimdAdd                        0      0.00%     82.45% # Class of executed instruction
system.cpu.op_class::SimdAddAcc                     0      0.00%     82.45% # Class of executed instruction
system.cpu.op_class::SimdAlu                        0      0.00%     82.45% # Class of executed instruction
system.cpu.op_class::SimdCmp                        0      0.00%     82.45% # Class of executed instruction
system.cpu.op_class::SimdCvt                        0      0.00%     82.45% # Class of executed instruction
system.cpu.op_class::SimdMisc                       0      0.00%     82.45% # Class of executed instruction
system.cpu.op_class::SimdMult                       0      0.00%     82.45% # Class of executed instruction
system.cpu.op_class::SimdMultAcc                    0      0.00%     82.45% # Class of executed instruction
system.cpu.op_class::SimdShift                      0      0.00%     82.45% # Class of executed instruction
system.cpu.op_class::SimdShiftAcc                   0      0.00%     82.45% # Class of executed instruction
system.cpu.op_class::SimdSqrt                       0      0.00%     82.45% # Class of executed instruction
system.cpu.op_class::SimdFloatAdd                   0      0.00%     82.45% # Class of executed instruction
system.cpu.op_class::SimdFloatAlu                   0      0.00%     82.45% # Class of executed instruction
system.cpu.op_class::SimdFloatCmp                   0      0.00%     82.45% # Class of executed instruction
system.cpu.op_class::SimdFloatCvt                   0      0.00%     82.45% # Class of executed instruction
system.cpu.op_class::SimdFloatDiv                   0      0.00%     82.45% # Class of executed instruction
system.cpu.op_class::SimdFloatMisc                  0      0.00%     82.45% # Class of executed instruction
system.cpu.op_class::SimdFloatMult                  0      0.00%     82.45% # Class of executed instruction
system.cpu.op_class::SimdFloatMultAcc               0      0.00%     82.45% # Class of executed instruction
system.cpu.op_class::SimdFloatSqrt                  0      0.00%     82.45% # Class of executed instruction
system.cpu.op_class::MemRead                   312522     11.47%     93.93% # Class of executed instruction
system.cpu.op_class::MemWrite                  165456      6.07%    100.00% # Class of executed instruction
system.cpu.op_class::IprAccess                      0      0.00%    100.00% # Class of executed instruction
system.cpu.op_class::InstPrefetch                   0      0.00%    100.00% # Class of executed instruction
system.cpu.op_class::total                    2723752                       # Class of executed instruction
system.gpu.clk_domain.voltage_domain.voltage            1                       # Voltage in Volts
system.gpu.clk_domain.clock                      1429                       # Clock period in ticks
system.gpu.dram_wrapper.clk_domain.clock          541                       # Clock period in ticks
system.gpu.icnt_wrapper.clk_domain.clock         2858                       # Clock period in ticks
system.ruby.delayHist::bucket_size               1024                       # delay histogram for all message
system.ruby.delayHist::max_bucket               10239                       # delay histogram for all message
system.ruby.delayHist::samples                  61141                       # delay histogram for all message
system.ruby.delayHist::mean                 58.424527                       # delay histogram for all message
system.ruby.delayHist::stdev               491.137318                       # delay histogram for all message
system.ruby.delayHist                    |       60559     99.05%     99.05% |          33      0.05%     99.10% |          37      0.06%     99.16% |         115      0.19%     99.35% |         143      0.23%     99.58% |         119      0.19%     99.78% |         135      0.22%    100.00% |           0      0.00%    100.00% |           0      0.00%    100.00% |           0      0.00%    100.00% # delay histogram for all message
system.ruby.delayHist::total                    61141                       # delay histogram for all message
system.ruby.outstanding_req_hist::bucket_size            8                      
system.ruby.outstanding_req_hist::max_bucket           79                      
system.ruby.outstanding_req_hist::samples      3071685                      
system.ruby.outstanding_req_hist::mean       1.034926                      
system.ruby.outstanding_req_hist::gmean      1.008021                      
system.ruby.outstanding_req_hist::stdev      0.986049                      
system.ruby.outstanding_req_hist         |     3068147     99.88%     99.88% |        1603      0.05%     99.94% |         706      0.02%     99.96% |         546      0.02%     99.98% |         118      0.00%     99.98% |          37      0.00%     99.98% |          55      0.00%     99.98% |         348      0.01%    100.00% |         125      0.00%    100.00% |           0      0.00%    100.00%
system.ruby.outstanding_req_hist::total       3071685                      
system.ruby.latency_hist::bucket_size            1024                      
system.ruby.latency_hist::max_bucket            10239                      
system.ruby.latency_hist::samples             3071685                      
system.ruby.latency_hist::mean               1.947124                      
system.ruby.latency_hist::gmean              1.021719                      
system.ruby.latency_hist::stdev             43.165920                      
system.ruby.latency_hist                 |     3071047     99.98%     99.98% |         129      0.00%     99.98% |         274      0.01%     99.99% |         179      0.01%    100.00% |          44      0.00%    100.00% |          12      0.00%    100.00% |           0      0.00%    100.00% |           0      0.00%    100.00% |           0      0.00%    100.00% |           0      0.00%    100.00%
system.ruby.latency_hist::total               3071685                      
system.ruby.hit_latency_hist::bucket_size            1                      
system.ruby.hit_latency_hist::max_bucket            9                      
system.ruby.hit_latency_hist::samples         3054210                      
system.ruby.hit_latency_hist::mean                  1                      
system.ruby.hit_latency_hist::gmean                 1                      
system.ruby.hit_latency_hist             |           0      0.00%      0.00% |     3054210    100.00%    100.00% |           0      0.00%    100.00% |           0      0.00%    100.00% |           0      0.00%    100.00% |           0      0.00%    100.00% |           0      0.00%    100.00% |           0      0.00%    100.00% |           0      0.00%    100.00% |           0      0.00%    100.00%
system.ruby.hit_latency_hist::total           3054210                      
system.ruby.miss_latency_hist::bucket_size         1024                      
system.ruby.miss_latency_hist::max_bucket        10239                      
system.ruby.miss_latency_hist::samples          17475                      
system.ruby.miss_latency_hist::mean        167.481717                      
system.ruby.miss_latency_hist::gmean        43.672834                      
system.ruby.miss_latency_hist::stdev       547.705524                      
system.ruby.miss_latency_hist            |       16837     96.35%     96.35% |         129      0.74%     97.09% |         274      1.57%     98.66% |         179      1.02%     99.68% |          44      0.25%     99.93% |          12      0.07%    100.00% |           0      0.00%    100.00% |           0      0.00%    100.00% |           0      0.00%    100.00% |           0      0.00%    100.00%
system.ruby.miss_latency_hist::total            17475                      
system.gpu.shader_mmu.numPagefaults                 0                       # Number of Pagefaults
system.gpu.shader_mmu.numPagewalks                 28                       # Number of Pagewalks
system.gpu.shader_mmu.totalRequests                28                       # Total number of requests
system.gpu.shader_mmu.retryFailures                 0                       # Times the retry walk after a pagefault failed
system.gpu.shader_mmu.l2hits                        0                       # Hits in the shared L2
system.gpu.shader_mmu.prefetchHits                  0                       # Number of prefetch hits
system.gpu.shader_mmu.numPrefetches                 0                       # Number of prefetchs
system.gpu.shader_mmu.prefetchFaults                0                       # Number of faults caused by prefetches
system.gpu.shader_mmu.pagefaultLatency::samples            0                       # Latency to complete the pagefault
system.gpu.shader_mmu.pagefaultLatency::mean          nan                       # Latency to complete the pagefault
system.gpu.shader_mmu.pagefaultLatency::gmean          nan                       # Latency to complete the pagefault
system.gpu.shader_mmu.pagefaultLatency::stdev          nan                       # Latency to complete the pagefault
system.gpu.shader_mmu.pagefaultLatency::0            0                       # Latency to complete the pagefault
system.gpu.shader_mmu.pagefaultLatency::1            0                       # Latency to complete the pagefault
system.gpu.shader_mmu.pagefaultLatency::2            0                       # Latency to complete the pagefault
system.gpu.shader_mmu.pagefaultLatency::3            0                       # Latency to complete the pagefault
system.gpu.shader_mmu.pagefaultLatency::4            0                       # Latency to complete the pagefault
system.gpu.shader_mmu.pagefaultLatency::5            0                       # Latency to complete the pagefault
system.gpu.shader_mmu.pagefaultLatency::6            0                       # Latency to complete the pagefault
system.gpu.shader_mmu.pagefaultLatency::7            0                       # Latency to complete the pagefault
system.gpu.shader_mmu.pagefaultLatency::8            0                       # Latency to complete the pagefault
system.gpu.shader_mmu.pagefaultLatency::9            0                       # Latency to complete the pagefault
system.gpu.shader_mmu.pagefaultLatency::10            0                       # Latency to complete the pagefault
system.gpu.shader_mmu.pagefaultLatency::11            0                       # Latency to complete the pagefault
system.gpu.shader_mmu.pagefaultLatency::12            0                       # Latency to complete the pagefault
system.gpu.shader_mmu.pagefaultLatency::13            0                       # Latency to complete the pagefault
system.gpu.shader_mmu.pagefaultLatency::14            0                       # Latency to complete the pagefault
system.gpu.shader_mmu.pagefaultLatency::15            0                       # Latency to complete the pagefault
system.gpu.shader_mmu.pagefaultLatency::16            0                       # Latency to complete the pagefault
system.gpu.shader_mmu.pagefaultLatency::17            0                       # Latency to complete the pagefault
system.gpu.shader_mmu.pagefaultLatency::18            0                       # Latency to complete the pagefault
system.gpu.shader_mmu.pagefaultLatency::19            0                       # Latency to complete the pagefault
system.gpu.shader_mmu.pagefaultLatency::20            0                       # Latency to complete the pagefault
system.gpu.shader_mmu.pagefaultLatency::21            0                       # Latency to complete the pagefault
system.gpu.shader_mmu.pagefaultLatency::22            0                       # Latency to complete the pagefault
system.gpu.shader_mmu.pagefaultLatency::23            0                       # Latency to complete the pagefault
system.gpu.shader_mmu.pagefaultLatency::24            0                       # Latency to complete the pagefault
system.gpu.shader_mmu.pagefaultLatency::25            0                       # Latency to complete the pagefault
system.gpu.shader_mmu.pagefaultLatency::26            0                       # Latency to complete the pagefault
system.gpu.shader_mmu.pagefaultLatency::27            0                       # Latency to complete the pagefault
system.gpu.shader_mmu.pagefaultLatency::28            0                       # Latency to complete the pagefault
system.gpu.shader_mmu.pagefaultLatency::29            0                       # Latency to complete the pagefault
system.gpu.shader_mmu.pagefaultLatency::30            0                       # Latency to complete the pagefault
system.gpu.shader_mmu.pagefaultLatency::31            0                       # Latency to complete the pagefault
system.gpu.shader_mmu.pagefaultLatency::total            0                       # Latency to complete the pagefault
system.gpu.shader_mmu.concurrentWalks::samples           28                       # Number of outstanding walks
system.gpu.shader_mmu.concurrentWalks::mean            0                       # Number of outstanding walks
system.gpu.shader_mmu.concurrentWalks::gmean            0                       # Number of outstanding walks
system.gpu.shader_mmu.concurrentWalks::stdev            0                       # Number of outstanding walks
system.gpu.shader_mmu.concurrentWalks::0           28    100.00%    100.00% # Number of outstanding walks
system.gpu.shader_mmu.concurrentWalks::1            0      0.00%    100.00% # Number of outstanding walks
system.gpu.shader_mmu.concurrentWalks::2            0      0.00%    100.00% # Number of outstanding walks
system.gpu.shader_mmu.concurrentWalks::3            0      0.00%    100.00% # Number of outstanding walks
system.gpu.shader_mmu.concurrentWalks::4            0      0.00%    100.00% # Number of outstanding walks
system.gpu.shader_mmu.concurrentWalks::5            0      0.00%    100.00% # Number of outstanding walks
system.gpu.shader_mmu.concurrentWalks::6            0      0.00%    100.00% # Number of outstanding walks
system.gpu.shader_mmu.concurrentWalks::7            0      0.00%    100.00% # Number of outstanding walks
system.gpu.shader_mmu.concurrentWalks::8            0      0.00%    100.00% # Number of outstanding walks
system.gpu.shader_mmu.concurrentWalks::9            0      0.00%    100.00% # Number of outstanding walks
system.gpu.shader_mmu.concurrentWalks::10            0      0.00%    100.00% # Number of outstanding walks
system.gpu.shader_mmu.concurrentWalks::11            0      0.00%    100.00% # Number of outstanding walks
system.gpu.shader_mmu.concurrentWalks::12            0      0.00%    100.00% # Number of outstanding walks
system.gpu.shader_mmu.concurrentWalks::13            0      0.00%    100.00% # Number of outstanding walks
system.gpu.shader_mmu.concurrentWalks::14            0      0.00%    100.00% # Number of outstanding walks
system.gpu.shader_mmu.concurrentWalks::15            0      0.00%    100.00% # Number of outstanding walks
system.gpu.shader_mmu.concurrentWalks::total           28                       # Number of outstanding walks
system.gpu.shader_mmu.pagewalkLatency::samples           28                       # Latency to complete the pagewalk
system.gpu.shader_mmu.pagewalkLatency::mean            0                       # Latency to complete the pagewalk
system.gpu.shader_mmu.pagewalkLatency::gmean            0                       # Latency to complete the pagewalk
system.gpu.shader_mmu.pagewalkLatency::stdev            0                       # Latency to complete the pagewalk
system.gpu.shader_mmu.pagewalkLatency::0           28    100.00%    100.00% # Latency to complete the pagewalk
system.gpu.shader_mmu.pagewalkLatency::1            0      0.00%    100.00% # Latency to complete the pagewalk
system.gpu.shader_mmu.pagewalkLatency::2            0      0.00%    100.00% # Latency to complete the pagewalk
system.gpu.shader_mmu.pagewalkLatency::3            0      0.00%    100.00% # Latency to complete the pagewalk
system.gpu.shader_mmu.pagewalkLatency::4            0      0.00%    100.00% # Latency to complete the pagewalk
system.gpu.shader_mmu.pagewalkLatency::5            0      0.00%    100.00% # Latency to complete the pagewalk
system.gpu.shader_mmu.pagewalkLatency::6            0      0.00%    100.00% # Latency to complete the pagewalk
system.gpu.shader_mmu.pagewalkLatency::7            0      0.00%    100.00% # Latency to complete the pagewalk
system.gpu.shader_mmu.pagewalkLatency::8            0      0.00%    100.00% # Latency to complete the pagewalk
system.gpu.shader_mmu.pagewalkLatency::9            0      0.00%    100.00% # Latency to complete the pagewalk
system.gpu.shader_mmu.pagewalkLatency::10            0      0.00%    100.00% # Latency to complete the pagewalk
system.gpu.shader_mmu.pagewalkLatency::11            0      0.00%    100.00% # Latency to complete the pagewalk
system.gpu.shader_mmu.pagewalkLatency::12            0      0.00%    100.00% # Latency to complete the pagewalk
system.gpu.shader_mmu.pagewalkLatency::13            0      0.00%    100.00% # Latency to complete the pagewalk
system.gpu.shader_mmu.pagewalkLatency::14            0      0.00%    100.00% # Latency to complete the pagewalk
system.gpu.shader_mmu.pagewalkLatency::15            0      0.00%    100.00% # Latency to complete the pagewalk
system.gpu.shader_mmu.pagewalkLatency::16            0      0.00%    100.00% # Latency to complete the pagewalk
system.gpu.shader_mmu.pagewalkLatency::17            0      0.00%    100.00% # Latency to complete the pagewalk
system.gpu.shader_mmu.pagewalkLatency::18            0      0.00%    100.00% # Latency to complete the pagewalk
system.gpu.shader_mmu.pagewalkLatency::19            0      0.00%    100.00% # Latency to complete the pagewalk
system.gpu.shader_mmu.pagewalkLatency::20            0      0.00%    100.00% # Latency to complete the pagewalk
system.gpu.shader_mmu.pagewalkLatency::21            0      0.00%    100.00% # Latency to complete the pagewalk
system.gpu.shader_mmu.pagewalkLatency::22            0      0.00%    100.00% # Latency to complete the pagewalk
system.gpu.shader_mmu.pagewalkLatency::23            0      0.00%    100.00% # Latency to complete the pagewalk
system.gpu.shader_mmu.pagewalkLatency::24            0      0.00%    100.00% # Latency to complete the pagewalk
system.gpu.shader_mmu.pagewalkLatency::25            0      0.00%    100.00% # Latency to complete the pagewalk
system.gpu.shader_mmu.pagewalkLatency::26            0      0.00%    100.00% # Latency to complete the pagewalk
system.gpu.shader_mmu.pagewalkLatency::27            0      0.00%    100.00% # Latency to complete the pagewalk
system.gpu.shader_mmu.pagewalkLatency::28            0      0.00%    100.00% # Latency to complete the pagewalk
system.gpu.shader_mmu.pagewalkLatency::29            0      0.00%    100.00% # Latency to complete the pagewalk
system.gpu.shader_mmu.pagewalkLatency::30            0      0.00%    100.00% # Latency to complete the pagewalk
system.gpu.shader_mmu.pagewalkLatency::31            0      0.00%    100.00% # Latency to complete the pagewalk
system.gpu.shader_mmu.pagewalkLatency::total           28                       # Latency to complete the pagewalk
system.gpu.kernels_started                          9                       # Number of kernels started
system.gpu.kernels_completed                        9                       # Number of kernels completed
system.gpu.ce.device_dtb.hits                       0                       # Number of hits in this TLB
system.gpu.ce.device_dtb.misses                     0                       # Number of misses in this TLB
system.gpu.ce.device_dtb.hitRate                  nan                       # Hit rate for this TLB
system.gpu.ce.host_dtb.hits                       402                       # Number of hits in this TLB
system.gpu.ce.host_dtb.misses                      28                       # Number of misses in this TLB
system.gpu.ce.host_dtb.hitRate               0.934884                       # Hit rate for this TLB
system.gpu.shader_cores0.itb.hits                   0                       # Number of hits in this TLB
system.gpu.shader_cores0.itb.misses                 0                       # Number of misses in this TLB
system.gpu.shader_cores0.itb.hitRate              nan                       # Hit rate for this TLB
system.gpu.shader_cores0.local_loads                0                       # Number of loads from local space
system.gpu.shader_cores0.local_stores               0                       # Number of stores to local space
system.gpu.shader_cores0.shared_loads          363408                       # Number of loads from shared space
system.gpu.shader_cores0.shared_stores          28379                       # Number of stores to shared space
system.gpu.shader_cores0.param_kernel_loads       744534                       # Number of loads from kernel parameter space
system.gpu.shader_cores0.param_local_loads            0                       # Number of loads from local parameter space
system.gpu.shader_cores0.param_local_stores            0                       # Number of stores to local parameter space
system.gpu.shader_cores0.const_loads                0                       # Number of loads from constant space
system.gpu.shader_cores0.tex_loads                  0                       # Number of loads from texture space
system.gpu.shader_cores0.global_loads         1832834                       # Number of loads from global space
system.gpu.shader_cores0.global_stores           8576                       # Number of stores to global space
system.gpu.shader_cores0.surf_loads                 0                       # Number of loads from surface space
system.gpu.shader_cores0.generic_loads              0                       # Number of loads from generic spaces (global, shared, local)
system.gpu.shader_cores0.generic_stores             0                       # Number of stores to generic spaces (global, shared, local)
system.gpu.shader_cores0.inst_cache_requests           50                       # Number of instruction cache requests sent
system.gpu.shader_cores0.inst_cache_retries            0                       # Number of instruction cache retries
system.gpu.shader_cores0.inst_counts::0             0                       # Inst counts: 1: ALU, 2: MAD, 3: CTRL, 4: SFU, 5: MEM, 6: TEX, 7: NOP
system.gpu.shader_cores0.inst_counts::1      11402566                       # Inst counts: 1: ALU, 2: MAD, 3: CTRL, 4: SFU, 5: MEM, 6: TEX, 7: NOP
system.gpu.shader_cores0.inst_counts::2       1826535                       # Inst counts: 1: ALU, 2: MAD, 3: CTRL, 4: SFU, 5: MEM, 6: TEX, 7: NOP
system.gpu.shader_cores0.inst_counts::3       1634839                       # Inst counts: 1: ALU, 2: MAD, 3: CTRL, 4: SFU, 5: MEM, 6: TEX, 7: NOP
system.gpu.shader_cores0.inst_counts::4        247872                       # Inst counts: 1: ALU, 2: MAD, 3: CTRL, 4: SFU, 5: MEM, 6: TEX, 7: NOP
system.gpu.shader_cores0.inst_counts::5       2977731                       # Inst counts: 1: ALU, 2: MAD, 3: CTRL, 4: SFU, 5: MEM, 6: TEX, 7: NOP
system.gpu.shader_cores0.inst_counts::6             0                       # Inst counts: 1: ALU, 2: MAD, 3: CTRL, 4: SFU, 5: MEM, 6: TEX, 7: NOP
system.gpu.shader_cores0.inst_counts::7             0                       # Inst counts: 1: ALU, 2: MAD, 3: CTRL, 4: SFU, 5: MEM, 6: TEX, 7: NOP
system.gpu.shader_cores0.activeCycles          595929                       # Number of cycles this shader was executing a CTA
system.gpu.shader_cores0.notStalledCycles       448241                       # Number of cycles this shader was actually executing at least one instance
system.gpu.shader_cores0.instInstances       18089543                       # Total instructions executed by all PEs in the core
system.gpu.shader_cores0.instPerCycle       30.355198                       # Instruction instances per cycle
system.gpu.shader_cores0.kernels_completed            8                       # Number of kernels completed
system.gpu.shader_cores0.lsq.data_tlb.hits            0                       # Number of hits in this TLB
system.gpu.shader_cores0.lsq.data_tlb.misses            0                       # Number of misses in this TLB
system.gpu.shader_cores0.lsq.data_tlb.hitRate          nan                       # Hit rate for this TLB
system.gpu.shader_cores0.lsq.warpInstBufActive::samples    377038171                       # Histogram of number of active warp inst buffers at a given time
system.gpu.shader_cores0.lsq.warpInstBufActive::mean     3.551441                       # Histogram of number of active warp inst buffers at a given time
system.gpu.shader_cores0.lsq.warpInstBufActive::gmean          nan                       # Histogram of number of active warp inst buffers at a given time
system.gpu.shader_cores0.lsq.warpInstBufActive::stdev     6.452879                       # Histogram of number of active warp inst buffers at a given time
system.gpu.shader_cores0.lsq.warpInstBufActive::0   -225028109    -59.68%    -59.68% # Histogram of number of active warp inst buffers at a given time
system.gpu.shader_cores0.lsq.warpInstBufActive::1    323166921     85.71%     26.03% # Histogram of number of active warp inst buffers at a given time
system.gpu.shader_cores0.lsq.warpInstBufActive::2    190245628     50.46%     76.49% # Histogram of number of active warp inst buffers at a given time
system.gpu.shader_cores0.lsq.warpInstBufActive::3     62921728     16.69%     93.18% # Histogram of number of active warp inst buffers at a given time
system.gpu.shader_cores0.lsq.warpInstBufActive::4     13336857      3.54%     96.71% # Histogram of number of active warp inst buffers at a given time
system.gpu.shader_cores0.lsq.warpInstBufActive::5      2079195      0.55%     97.26% # Histogram of number of active warp inst buffers at a given time
system.gpu.shader_cores0.lsq.warpInstBufActive::6       497292      0.13%     97.40% # Histogram of number of active warp inst buffers at a given time
system.gpu.shader_cores0.lsq.warpInstBufActive::7       174338      0.05%     97.44% # Histogram of number of active warp inst buffers at a given time
system.gpu.shader_cores0.lsq.warpInstBufActive::8       265794      0.07%     97.51% # Histogram of number of active warp inst buffers at a given time
system.gpu.shader_cores0.lsq.warpInstBufActive::9       241501      0.06%     97.58% # Histogram of number of active warp inst buffers at a given time
system.gpu.shader_cores0.lsq.warpInstBufActive::10       140042      0.04%     97.61% # Histogram of number of active warp inst buffers at a given time
system.gpu.shader_cores0.lsq.warpInstBufActive::11       137184      0.04%     97.65% # Histogram of number of active warp inst buffers at a given time
system.gpu.shader_cores0.lsq.warpInstBufActive::12       128610      0.03%     97.68% # Histogram of number of active warp inst buffers at a given time
system.gpu.shader_cores0.lsq.warpInstBufActive::13       142900      0.04%     97.72% # Histogram of number of active warp inst buffers at a given time
system.gpu.shader_cores0.lsq.warpInstBufActive::14       151474      0.04%     97.76% # Histogram of number of active warp inst buffers at a given time
system.gpu.shader_cores0.lsq.warpInstBufActive::15       168622      0.04%     97.81% # Histogram of number of active warp inst buffers at a given time
system.gpu.shader_cores0.lsq.warpInstBufActive::16       184341      0.05%     97.86% # Histogram of number of active warp inst buffers at a given time
system.gpu.shader_cores0.lsq.warpInstBufActive::17       148616      0.04%     97.90% # Histogram of number of active warp inst buffers at a given time
system.gpu.shader_cores0.lsq.warpInstBufActive::18       122894      0.03%     97.93% # Histogram of number of active warp inst buffers at a given time
system.gpu.shader_cores0.lsq.warpInstBufActive::19       168622      0.04%     97.97% # Histogram of number of active warp inst buffers at a given time
system.gpu.shader_cores0.lsq.warpInstBufActive::20       264365      0.07%     98.04% # Histogram of number of active warp inst buffers at a given time
system.gpu.shader_cores0.lsq.warpInstBufActive::21       194344      0.05%     98.09% # Histogram of number of active warp inst buffers at a given time
system.gpu.shader_cores0.lsq.warpInstBufActive::22       135755      0.04%     98.13% # Histogram of number of active warp inst buffers at a given time
system.gpu.shader_cores0.lsq.warpInstBufActive::23       137184      0.04%     98.17% # Histogram of number of active warp inst buffers at a given time
system.gpu.shader_cores0.lsq.warpInstBufActive::24       165764      0.04%     98.21% # Histogram of number of active warp inst buffers at a given time
system.gpu.shader_cores0.lsq.warpInstBufActive::25       174338      0.05%     98.26% # Histogram of number of active warp inst buffers at a given time
system.gpu.shader_cores0.lsq.warpInstBufActive::26       174338      0.05%     98.30% # Histogram of number of active warp inst buffers at a given time
system.gpu.shader_cores0.lsq.warpInstBufActive::27       108604      0.03%     98.33% # Histogram of number of active warp inst buffers at a given time
system.gpu.shader_cores0.lsq.warpInstBufActive::28       110033      0.03%     98.36% # Histogram of number of active warp inst buffers at a given time
system.gpu.shader_cores0.lsq.warpInstBufActive::29       160048      0.04%     98.40% # Histogram of number of active warp inst buffers at a given time
system.gpu.shader_cores0.lsq.warpInstBufActive::30        88598      0.02%     98.43% # Histogram of number of active warp inst buffers at a given time
system.gpu.shader_cores0.lsq.warpInstBufActive::31       130039      0.03%     98.46% # Histogram of number of active warp inst buffers at a given time
system.gpu.shader_cores0.lsq.warpInstBufActive::32       121465      0.03%     98.49% # Histogram of number of active warp inst buffers at a given time
system.gpu.shader_cores0.lsq.warpInstBufActive::33       118607      0.03%     98.53% # Histogram of number of active warp inst buffers at a given time
system.gpu.shader_cores0.lsq.warpInstBufActive::34       147187      0.04%     98.56% # Histogram of number of active warp inst buffers at a given time
system.gpu.shader_cores0.lsq.warpInstBufActive::35       138613      0.04%     98.60% # Histogram of number of active warp inst buffers at a given time
system.gpu.shader_cores0.lsq.warpInstBufActive::36       137184      0.04%     98.64% # Histogram of number of active warp inst buffers at a given time
system.gpu.shader_cores0.lsq.warpInstBufActive::37       151474      0.04%     98.68% # Histogram of number of active warp inst buffers at a given time
system.gpu.shader_cores0.lsq.warpInstBufActive::38       107175      0.03%     98.71% # Histogram of number of active warp inst buffers at a given time
system.gpu.shader_cores0.lsq.warpInstBufActive::39       144329      0.04%     98.74% # Histogram of number of active warp inst buffers at a given time
system.gpu.shader_cores0.lsq.warpInstBufActive::40        98601      0.03%     98.77% # Histogram of number of active warp inst buffers at a given time
system.gpu.shader_cores0.lsq.warpInstBufActive::41       140042      0.04%     98.81% # Histogram of number of active warp inst buffers at a given time
system.gpu.shader_cores0.lsq.warpInstBufActive::42       127181      0.03%     98.84% # Histogram of number of active warp inst buffers at a given time
system.gpu.shader_cores0.lsq.warpInstBufActive::43       114320      0.03%     98.87% # Histogram of number of active warp inst buffers at a given time
system.gpu.shader_cores0.lsq.warpInstBufActive::44       107175      0.03%     98.90% # Histogram of number of active warp inst buffers at a given time
system.gpu.shader_cores0.lsq.warpInstBufActive::45       140042      0.04%     98.94% # Histogram of number of active warp inst buffers at a given time
system.gpu.shader_cores0.lsq.warpInstBufActive::46       141471      0.04%     98.97% # Histogram of number of active warp inst buffers at a given time
system.gpu.shader_cores0.lsq.warpInstBufActive::47       182912      0.05%     99.02% # Histogram of number of active warp inst buffers at a given time
system.gpu.shader_cores0.lsq.warpInstBufActive::48       104317      0.03%     99.05% # Histogram of number of active warp inst buffers at a given time
system.gpu.shader_cores0.lsq.warpInstBufActive::49       324383      0.09%     99.14% # Histogram of number of active warp inst buffers at a given time
system.gpu.shader_cores0.lsq.warpInstBufActive::50       158619      0.04%     99.18% # Histogram of number of active warp inst buffers at a given time
system.gpu.shader_cores0.lsq.warpInstBufActive::51       161477      0.04%     99.22% # Histogram of number of active warp inst buffers at a given time
system.gpu.shader_cores0.lsq.warpInstBufActive::52        57160      0.02%     99.24% # Histogram of number of active warp inst buffers at a given time
system.gpu.shader_cores0.lsq.warpInstBufActive::53        27151      0.01%     99.24% # Histogram of number of active warp inst buffers at a given time
system.gpu.shader_cores0.lsq.warpInstBufActive::54         5716      0.00%     99.25% # Histogram of number of active warp inst buffers at a given time
system.gpu.shader_cores0.lsq.warpInstBufActive::55        21435      0.01%     99.25% # Histogram of number of active warp inst buffers at a given time
system.gpu.shader_cores0.lsq.warpInstBufActive::56         7145      0.00%     99.25% # Histogram of number of active warp inst buffers at a given time
system.gpu.shader_cores0.lsq.warpInstBufActive::57        14290      0.00%     99.26% # Histogram of number of active warp inst buffers at a given time
system.gpu.shader_cores0.lsq.warpInstBufActive::58         8574      0.00%     99.26% # Histogram of number of active warp inst buffers at a given time
system.gpu.shader_cores0.lsq.warpInstBufActive::59        15719      0.00%     99.26% # Histogram of number of active warp inst buffers at a given time
system.gpu.shader_cores0.lsq.warpInstBufActive::60        35725      0.01%     99.27% # Histogram of number of active warp inst buffers at a given time
system.gpu.shader_cores0.lsq.warpInstBufActive::61        15719      0.00%     99.28% # Histogram of number of active warp inst buffers at a given time
system.gpu.shader_cores0.lsq.warpInstBufActive::62        44299      0.01%     99.29% # Histogram of number of active warp inst buffers at a given time
system.gpu.shader_cores0.lsq.warpInstBufActive::63       211492      0.06%     99.35% # Histogram of number of active warp inst buffers at a given time
system.gpu.shader_cores0.lsq.warpInstBufActive::64      2469312      0.65%    100.00% # Histogram of number of active warp inst buffers at a given time
system.gpu.shader_cores0.lsq.warpInstBufActive::total    377038171                       # Histogram of number of active warp inst buffers at a given time
system.gpu.shader_cores0.lsq.cacheAccesses     0.082137                       # Average number of concurrent outstanding cache accesses
system.gpu.shader_cores0.lsq.writebackBlockedCycles         7654                       # Number of cycles blocked for core writeback stage
system.gpu.shader_cores0.lsq.mshrHitQueued         1033                       # Number of hits on blocked lines in MSHRs
system.gpu.shader_cores0.lsq.mshrsFullCycles            0                       # Number of cycles stalled waiting for an MSHR
system.gpu.shader_cores0.lsq.mshrsFullCount            0                       # Number of times MSHRs filled
system.gpu.shader_cores0.lsq.warpCoalescedAccesses::samples        59236                       # Number of coalesced accesses per warp instruction
system.gpu.shader_cores0.lsq.warpCoalescedAccesses::mean     1.080154                       # Number of coalesced accesses per warp instruction
system.gpu.shader_cores0.lsq.warpCoalescedAccesses::gmean     1.027040                       # Number of coalesced accesses per warp instruction
system.gpu.shader_cores0.lsq.warpCoalescedAccesses::stdev     0.900929                       # Number of coalesced accesses per warp instruction
system.gpu.shader_cores0.lsq.warpCoalescedAccesses::0            0      0.00%      0.00% # Number of coalesced accesses per warp instruction
system.gpu.shader_cores0.lsq.warpCoalescedAccesses::1        58111     98.10%     98.10% # Number of coalesced accesses per warp instruction
system.gpu.shader_cores0.lsq.warpCoalescedAccesses::2          311      0.53%     98.63% # Number of coalesced accesses per warp instruction
system.gpu.shader_cores0.lsq.warpCoalescedAccesses::3          181      0.31%     98.93% # Number of coalesced accesses per warp instruction
system.gpu.shader_cores0.lsq.warpCoalescedAccesses::4          175      0.30%     99.23% # Number of coalesced accesses per warp instruction
system.gpu.shader_cores0.lsq.warpCoalescedAccesses::5          143      0.24%     99.47% # Number of coalesced accesses per warp instruction
system.gpu.shader_cores0.lsq.warpCoalescedAccesses::6           85      0.14%     99.61% # Number of coalesced accesses per warp instruction
system.gpu.shader_cores0.lsq.warpCoalescedAccesses::7           67      0.11%     99.72% # Number of coalesced accesses per warp instruction
system.gpu.shader_cores0.lsq.warpCoalescedAccesses::8           59      0.10%     99.82% # Number of coalesced accesses per warp instruction
system.gpu.shader_cores0.lsq.warpCoalescedAccesses::9            8      0.01%     99.84% # Number of coalesced accesses per warp instruction
system.gpu.shader_cores0.lsq.warpCoalescedAccesses::10            0      0.00%     99.84% # Number of coalesced accesses per warp instruction
system.gpu.shader_cores0.lsq.warpCoalescedAccesses::11           48      0.08%     99.92% # Number of coalesced accesses per warp instruction
system.gpu.shader_cores0.lsq.warpCoalescedAccesses::12            0      0.00%     99.92% # Number of coalesced accesses per warp instruction
system.gpu.shader_cores0.lsq.warpCoalescedAccesses::13            0      0.00%     99.92% # Number of coalesced accesses per warp instruction
system.gpu.shader_cores0.lsq.warpCoalescedAccesses::14            0      0.00%     99.92% # Number of coalesced accesses per warp instruction
system.gpu.shader_cores0.lsq.warpCoalescedAccesses::15            0      0.00%     99.92% # Number of coalesced accesses per warp instruction
system.gpu.shader_cores0.lsq.warpCoalescedAccesses::16            0      0.00%     99.92% # Number of coalesced accesses per warp instruction
system.gpu.shader_cores0.lsq.warpCoalescedAccesses::17            0      0.00%     99.92% # Number of coalesced accesses per warp instruction
system.gpu.shader_cores0.lsq.warpCoalescedAccesses::18            0      0.00%     99.92% # Number of coalesced accesses per warp instruction
system.gpu.shader_cores0.lsq.warpCoalescedAccesses::19            9      0.02%     99.93% # Number of coalesced accesses per warp instruction
system.gpu.shader_cores0.lsq.warpCoalescedAccesses::20            0      0.00%     99.93% # Number of coalesced accesses per warp instruction
system.gpu.shader_cores0.lsq.warpCoalescedAccesses::21            3      0.01%     99.94% # Number of coalesced accesses per warp instruction
system.gpu.shader_cores0.lsq.warpCoalescedAccesses::22            6      0.01%     99.95% # Number of coalesced accesses per warp instruction
system.gpu.shader_cores0.lsq.warpCoalescedAccesses::23            0      0.00%     99.95% # Number of coalesced accesses per warp instruction
system.gpu.shader_cores0.lsq.warpCoalescedAccesses::24            0      0.00%     99.95% # Number of coalesced accesses per warp instruction
system.gpu.shader_cores0.lsq.warpCoalescedAccesses::25            6      0.01%     99.96% # Number of coalesced accesses per warp instruction
system.gpu.shader_cores0.lsq.warpCoalescedAccesses::26            3      0.01%     99.96% # Number of coalesced accesses per warp instruction
system.gpu.shader_cores0.lsq.warpCoalescedAccesses::27            0      0.00%     99.96% # Number of coalesced accesses per warp instruction
system.gpu.shader_cores0.lsq.warpCoalescedAccesses::28            0      0.00%     99.96% # Number of coalesced accesses per warp instruction
system.gpu.shader_cores0.lsq.warpCoalescedAccesses::29            0      0.00%     99.96% # Number of coalesced accesses per warp instruction
system.gpu.shader_cores0.lsq.warpCoalescedAccesses::30            6      0.01%     99.97% # Number of coalesced accesses per warp instruction
system.gpu.shader_cores0.lsq.warpCoalescedAccesses::31           12      0.02%     99.99% # Number of coalesced accesses per warp instruction
system.gpu.shader_cores0.lsq.warpCoalescedAccesses::32            3      0.01%    100.00% # Number of coalesced accesses per warp instruction
system.gpu.shader_cores0.lsq.warpCoalescedAccesses::total        59236                       # Number of coalesced accesses per warp instruction
system.gpu.shader_cores0.lsq.warpLatencyRead::samples        58400                       # Latency in cycles for whole warp to finish the read
system.gpu.shader_cores0.lsq.warpLatencyRead::mean    11.709658                       # Latency in cycles for whole warp to finish the read
system.gpu.shader_cores0.lsq.warpLatencyRead::gmean    11.232980                       # Latency in cycles for whole warp to finish the read
system.gpu.shader_cores0.lsq.warpLatencyRead::stdev    25.752226                       # Latency in cycles for whole warp to finish the read
system.gpu.shader_cores0.lsq.warpLatencyRead::0-255        58381     99.97%     99.97% # Latency in cycles for whole warp to finish the read
system.gpu.shader_cores0.lsq.warpLatencyRead::256-511           11      0.02%     99.99% # Latency in cycles for whole warp to finish the read
system.gpu.shader_cores0.lsq.warpLatencyRead::512-767            0      0.00%     99.99% # Latency in cycles for whole warp to finish the read
system.gpu.shader_cores0.lsq.warpLatencyRead::768-1023            0      0.00%     99.99% # Latency in cycles for whole warp to finish the read
system.gpu.shader_cores0.lsq.warpLatencyRead::1024-1279            0      0.00%     99.99% # Latency in cycles for whole warp to finish the read
system.gpu.shader_cores0.lsq.warpLatencyRead::1280-1535            0      0.00%     99.99% # Latency in cycles for whole warp to finish the read
system.gpu.shader_cores0.lsq.warpLatencyRead::1536-1791            0      0.00%     99.99% # Latency in cycles for whole warp to finish the read
system.gpu.shader_cores0.lsq.warpLatencyRead::1792-2047            0      0.00%     99.99% # Latency in cycles for whole warp to finish the read
system.gpu.shader_cores0.lsq.warpLatencyRead::2048-2303            8      0.01%    100.00% # Latency in cycles for whole warp to finish the read
system.gpu.shader_cores0.lsq.warpLatencyRead::2304-2559            0      0.00%    100.00% # Latency in cycles for whole warp to finish the read
system.gpu.shader_cores0.lsq.warpLatencyRead::2560-2815            0      0.00%    100.00% # Latency in cycles for whole warp to finish the read
system.gpu.shader_cores0.lsq.warpLatencyRead::2816-3071            0      0.00%    100.00% # Latency in cycles for whole warp to finish the read
system.gpu.shader_cores0.lsq.warpLatencyRead::3072-3327            0      0.00%    100.00% # Latency in cycles for whole warp to finish the read
system.gpu.shader_cores0.lsq.warpLatencyRead::3328-3583            0      0.00%    100.00% # Latency in cycles for whole warp to finish the read
system.gpu.shader_cores0.lsq.warpLatencyRead::3584-3839            0      0.00%    100.00% # Latency in cycles for whole warp to finish the read
system.gpu.shader_cores0.lsq.warpLatencyRead::3840-4095            0      0.00%    100.00% # Latency in cycles for whole warp to finish the read
system.gpu.shader_cores0.lsq.warpLatencyRead::total        58400                       # Latency in cycles for whole warp to finish the read
system.gpu.shader_cores0.lsq.warpLatencyWrite::samples          785                       # Latency in cycles for whole warp to finish the write
system.gpu.shader_cores0.lsq.warpLatencyWrite::mean   228.985987                       # Latency in cycles for whole warp to finish the write
system.gpu.shader_cores0.lsq.warpLatencyWrite::gmean    44.594782                       # Latency in cycles for whole warp to finish the write
system.gpu.shader_cores0.lsq.warpLatencyWrite::stdev   421.376381                       # Latency in cycles for whole warp to finish the write
system.gpu.shader_cores0.lsq.warpLatencyWrite::0-127          588     74.90%     74.90% # Latency in cycles for whole warp to finish the write
system.gpu.shader_cores0.lsq.warpLatencyWrite::128-255           28      3.57%     78.47% # Latency in cycles for whole warp to finish the write
system.gpu.shader_cores0.lsq.warpLatencyWrite::256-383           14      1.78%     80.25% # Latency in cycles for whole warp to finish the write
system.gpu.shader_cores0.lsq.warpLatencyWrite::384-511           13      1.66%     81.91% # Latency in cycles for whole warp to finish the write
system.gpu.shader_cores0.lsq.warpLatencyWrite::512-639            9      1.15%     83.06% # Latency in cycles for whole warp to finish the write
system.gpu.shader_cores0.lsq.warpLatencyWrite::640-767           13      1.66%     84.71% # Latency in cycles for whole warp to finish the write
system.gpu.shader_cores0.lsq.warpLatencyWrite::768-895           21      2.68%     87.39% # Latency in cycles for whole warp to finish the write
system.gpu.shader_cores0.lsq.warpLatencyWrite::896-1023           25      3.18%     90.57% # Latency in cycles for whole warp to finish the write
system.gpu.shader_cores0.lsq.warpLatencyWrite::1024-1151           21      2.68%     93.25% # Latency in cycles for whole warp to finish the write
system.gpu.shader_cores0.lsq.warpLatencyWrite::1152-1279           26      3.31%     96.56% # Latency in cycles for whole warp to finish the write
system.gpu.shader_cores0.lsq.warpLatencyWrite::1280-1407           10      1.27%     97.83% # Latency in cycles for whole warp to finish the write
system.gpu.shader_cores0.lsq.warpLatencyWrite::1408-1535            5      0.64%     98.47% # Latency in cycles for whole warp to finish the write
system.gpu.shader_cores0.lsq.warpLatencyWrite::1536-1663            5      0.64%     99.11% # Latency in cycles for whole warp to finish the write
system.gpu.shader_cores0.lsq.warpLatencyWrite::1664-1791            3      0.38%     99.49% # Latency in cycles for whole warp to finish the write
system.gpu.shader_cores0.lsq.warpLatencyWrite::1792-1919            4      0.51%    100.00% # Latency in cycles for whole warp to finish the write
system.gpu.shader_cores0.lsq.warpLatencyWrite::1920-2047            0      0.00%    100.00% # Latency in cycles for whole warp to finish the write
system.gpu.shader_cores0.lsq.warpLatencyWrite::total          785                       # Latency in cycles for whole warp to finish the write
system.gpu.shader_cores0.lsq.warpLatencyFence::samples          572                       # Latency in cycles for whole warp to finish the fence
system.gpu.shader_cores0.lsq.warpLatencyFence::mean     8.108392                       # Latency in cycles for whole warp to finish the fence
system.gpu.shader_cores0.lsq.warpLatencyFence::gmean     6.342350                       # Latency in cycles for whole warp to finish the fence
system.gpu.shader_cores0.lsq.warpLatencyFence::stdev    20.773538                       # Latency in cycles for whole warp to finish the fence
system.gpu.shader_cores0.lsq.warpLatencyFence::0-31          566     98.95%     98.95% # Latency in cycles for whole warp to finish the fence
system.gpu.shader_cores0.lsq.warpLatencyFence::32-63            2      0.35%     99.30% # Latency in cycles for whole warp to finish the fence
system.gpu.shader_cores0.lsq.warpLatencyFence::64-95            0      0.00%     99.30% # Latency in cycles for whole warp to finish the fence
system.gpu.shader_cores0.lsq.warpLatencyFence::96-127            0      0.00%     99.30% # Latency in cycles for whole warp to finish the fence
system.gpu.shader_cores0.lsq.warpLatencyFence::128-159            0      0.00%     99.30% # Latency in cycles for whole warp to finish the fence
system.gpu.shader_cores0.lsq.warpLatencyFence::160-191            0      0.00%     99.30% # Latency in cycles for whole warp to finish the fence
system.gpu.shader_cores0.lsq.warpLatencyFence::192-223            0      0.00%     99.30% # Latency in cycles for whole warp to finish the fence
system.gpu.shader_cores0.lsq.warpLatencyFence::224-255            3      0.52%     99.83% # Latency in cycles for whole warp to finish the fence
system.gpu.shader_cores0.lsq.warpLatencyFence::256-287            1      0.17%    100.00% # Latency in cycles for whole warp to finish the fence
system.gpu.shader_cores0.lsq.warpLatencyFence::288-319            0      0.00%    100.00% # Latency in cycles for whole warp to finish the fence
system.gpu.shader_cores0.lsq.warpLatencyFence::320-351            0      0.00%    100.00% # Latency in cycles for whole warp to finish the fence
system.gpu.shader_cores0.lsq.warpLatencyFence::352-383            0      0.00%    100.00% # Latency in cycles for whole warp to finish the fence
system.gpu.shader_cores0.lsq.warpLatencyFence::384-415            0      0.00%    100.00% # Latency in cycles for whole warp to finish the fence
system.gpu.shader_cores0.lsq.warpLatencyFence::416-447            0      0.00%    100.00% # Latency in cycles for whole warp to finish the fence
system.gpu.shader_cores0.lsq.warpLatencyFence::448-479            0      0.00%    100.00% # Latency in cycles for whole warp to finish the fence
system.gpu.shader_cores0.lsq.warpLatencyFence::480-511            0      0.00%    100.00% # Latency in cycles for whole warp to finish the fence
system.gpu.shader_cores0.lsq.warpLatencyFence::total          572                       # Latency in cycles for whole warp to finish the fence
system.gpu.shader_cores0.lsq.warpLatencyAtomic::samples           51                       # Latency in cycles for whole warp to finish the atomic
system.gpu.shader_cores0.lsq.warpLatencyAtomic::mean  1349.078431                       # Latency in cycles for whole warp to finish the atomic
system.gpu.shader_cores0.lsq.warpLatencyAtomic::gmean   903.196920                       # Latency in cycles for whole warp to finish the atomic
system.gpu.shader_cores0.lsq.warpLatencyAtomic::stdev   789.933765                       # Latency in cycles for whole warp to finish the atomic
system.gpu.shader_cores0.lsq.warpLatencyAtomic::0-255            6     11.76%     11.76% # Latency in cycles for whole warp to finish the atomic
system.gpu.shader_cores0.lsq.warpLatencyAtomic::256-511            4      7.84%     19.61% # Latency in cycles for whole warp to finish the atomic
system.gpu.shader_cores0.lsq.warpLatencyAtomic::512-767            4      7.84%     27.45% # Latency in cycles for whole warp to finish the atomic
system.gpu.shader_cores0.lsq.warpLatencyAtomic::768-1023            5      9.80%     37.25% # Latency in cycles for whole warp to finish the atomic
system.gpu.shader_cores0.lsq.warpLatencyAtomic::1024-1279            4      7.84%     45.10% # Latency in cycles for whole warp to finish the atomic
system.gpu.shader_cores0.lsq.warpLatencyAtomic::1280-1535            5      9.80%     54.90% # Latency in cycles for whole warp to finish the atomic
system.gpu.shader_cores0.lsq.warpLatencyAtomic::1536-1791            4      7.84%     62.75% # Latency in cycles for whole warp to finish the atomic
system.gpu.shader_cores0.lsq.warpLatencyAtomic::1792-2047            4      7.84%     70.59% # Latency in cycles for whole warp to finish the atomic
system.gpu.shader_cores0.lsq.warpLatencyAtomic::2048-2303            8     15.69%     86.27% # Latency in cycles for whole warp to finish the atomic
system.gpu.shader_cores0.lsq.warpLatencyAtomic::2304-2559            7     13.73%    100.00% # Latency in cycles for whole warp to finish the atomic
system.gpu.shader_cores0.lsq.warpLatencyAtomic::2560-2815            0      0.00%    100.00% # Latency in cycles for whole warp to finish the atomic
system.gpu.shader_cores0.lsq.warpLatencyAtomic::2816-3071            0      0.00%    100.00% # Latency in cycles for whole warp to finish the atomic
system.gpu.shader_cores0.lsq.warpLatencyAtomic::3072-3327            0      0.00%    100.00% # Latency in cycles for whole warp to finish the atomic
system.gpu.shader_cores0.lsq.warpLatencyAtomic::3328-3583            0      0.00%    100.00% # Latency in cycles for whole warp to finish the atomic
system.gpu.shader_cores0.lsq.warpLatencyAtomic::3584-3839            0      0.00%    100.00% # Latency in cycles for whole warp to finish the atomic
system.gpu.shader_cores0.lsq.warpLatencyAtomic::3840-4095            0      0.00%    100.00% # Latency in cycles for whole warp to finish the atomic
system.gpu.shader_cores0.lsq.warpLatencyAtomic::total           51                       # Latency in cycles for whole warp to finish the atomic
system.gpu.shader_cores0.lsq.tlbMissLatency::samples            0                       # Latency in cycles for TLB miss
system.gpu.shader_cores0.lsq.tlbMissLatency::mean          nan                       # Latency in cycles for TLB miss
system.gpu.shader_cores0.lsq.tlbMissLatency::gmean          nan                       # Latency in cycles for TLB miss
system.gpu.shader_cores0.lsq.tlbMissLatency::stdev          nan                       # Latency in cycles for TLB miss
system.gpu.shader_cores0.lsq.tlbMissLatency::0            0                       # Latency in cycles for TLB miss
system.gpu.shader_cores0.lsq.tlbMissLatency::1            0                       # Latency in cycles for TLB miss
system.gpu.shader_cores0.lsq.tlbMissLatency::2            0                       # Latency in cycles for TLB miss
system.gpu.shader_cores0.lsq.tlbMissLatency::3            0                       # Latency in cycles for TLB miss
system.gpu.shader_cores0.lsq.tlbMissLatency::4            0                       # Latency in cycles for TLB miss
system.gpu.shader_cores0.lsq.tlbMissLatency::5            0                       # Latency in cycles for TLB miss
system.gpu.shader_cores0.lsq.tlbMissLatency::6            0                       # Latency in cycles for TLB miss
system.gpu.shader_cores0.lsq.tlbMissLatency::7            0                       # Latency in cycles for TLB miss
system.gpu.shader_cores0.lsq.tlbMissLatency::8            0                       # Latency in cycles for TLB miss
system.gpu.shader_cores0.lsq.tlbMissLatency::9            0                       # Latency in cycles for TLB miss
system.gpu.shader_cores0.lsq.tlbMissLatency::10            0                       # Latency in cycles for TLB miss
system.gpu.shader_cores0.lsq.tlbMissLatency::11            0                       # Latency in cycles for TLB miss
system.gpu.shader_cores0.lsq.tlbMissLatency::12            0                       # Latency in cycles for TLB miss
system.gpu.shader_cores0.lsq.tlbMissLatency::13            0                       # Latency in cycles for TLB miss
system.gpu.shader_cores0.lsq.tlbMissLatency::14            0                       # Latency in cycles for TLB miss
system.gpu.shader_cores0.lsq.tlbMissLatency::15            0                       # Latency in cycles for TLB miss
system.gpu.shader_cores0.lsq.tlbMissLatency::total            0                       # Latency in cycles for TLB miss
system.gpu.shader_cores1.itb.hits                   0                       # Number of hits in this TLB
system.gpu.shader_cores1.itb.misses                 0                       # Number of misses in this TLB
system.gpu.shader_cores1.itb.hitRate              nan                       # Hit rate for this TLB
system.gpu.shader_cores1.local_loads                0                       # Number of loads from local space
system.gpu.shader_cores1.local_stores               0                       # Number of stores to local space
system.gpu.shader_cores1.shared_loads          283764                       # Number of loads from shared space
system.gpu.shader_cores1.shared_stores          27136                       # Number of stores to shared space
system.gpu.shader_cores1.param_kernel_loads       575860                       # Number of loads from kernel parameter space
system.gpu.shader_cores1.param_local_loads            0                       # Number of loads from local parameter space
system.gpu.shader_cores1.param_local_stores            0                       # Number of stores to local parameter space
system.gpu.shader_cores1.const_loads                0                       # Number of loads from constant space
system.gpu.shader_cores1.tex_loads                  0                       # Number of loads from texture space
system.gpu.shader_cores1.global_loads         1407736                       # Number of loads from global space
system.gpu.shader_cores1.global_stores           8550                       # Number of stores to global space
system.gpu.shader_cores1.surf_loads                 0                       # Number of loads from surface space
system.gpu.shader_cores1.generic_loads              0                       # Number of loads from generic spaces (global, shared, local)
system.gpu.shader_cores1.generic_stores             0                       # Number of stores to generic spaces (global, shared, local)
system.gpu.shader_cores1.inst_cache_requests           58                       # Number of instruction cache requests sent
system.gpu.shader_cores1.inst_cache_retries            0                       # Number of instruction cache retries
system.gpu.shader_cores1.inst_counts::0             0                       # Inst counts: 1: ALU, 2: MAD, 3: CTRL, 4: SFU, 5: MEM, 6: TEX, 7: NOP
system.gpu.shader_cores1.inst_counts::1       8849768                       # Inst counts: 1: ALU, 2: MAD, 3: CTRL, 4: SFU, 5: MEM, 6: TEX, 7: NOP
[...]
system.ruby.L1Cache_Controller.Data_all_Acks::total        13500                      
system.ruby.L1Cache_Controller.Ack       |           2      0.18%      0.18% |         135     12.20%     12.38% |          93      8.40%     20.78% |         540     48.78%     69.56% |         289     26.11%     95.66% |           0      0.00%     95.66% |          48      4.34%    100.00%
system.ruby.L1Cache_Controller.Ack::total         1107                      
system.ruby.L1Cache_Controller.Ack_all   |           2      0.25%      0.25% |         103     13.09%     13.34% |          70      8.89%     22.24% |         318     40.41%     62.64% |         260     33.04%     95.68% |           0      0.00%     95.68% |          34      4.32%    100.00%
system.ruby.L1Cache_Controller.Ack_all::total          787                      
system.ruby.L1Cache_Controller.WB_Ack    |        1240     41.15%     41.15% |         258      8.56%     49.72% |         228      7.57%     57.29% |         434     14.40%     71.69% |         275      9.13%     80.82% |           0      0.00%     80.82% |         578     19.18%    100.00%
system.ruby.L1Cache_Controller.WB_Ack::total         3013                      
system.ruby.L1Cache_Controller.NP.Load   |        1336     14.69%     14.69% |        1371     15.07%     29.76% |        1919     21.10%     50.86% |        2298     25.26%     76.12% |        1748     19.22%     95.34% |           0      0.00%     95.34% |         424      4.66%    100.00%
system.ruby.L1Cache_Controller.NP.Load::total         9096                      
system.ruby.L1Cache_Controller.NP.Ifetch |        1094     81.16%     81.16% |          50      3.71%     84.87% |          58      4.30%     89.17% |          81      6.01%     95.18% |          65      4.82%    100.00% |           0      0.00%    100.00% |           0      0.00%    100.00%
system.ruby.L1Cache_Controller.NP.Ifetch::total         1348                      
system.ruby.L1Cache_Controller.NP.Store  |         433     13.41%     13.41% |         456     14.12%     27.53% |         513     15.89%     43.42% |         790     24.47%     67.88% |         614     19.02%     86.90% |           0      0.00%     86.90% |         423     13.10%    100.00%
system.ruby.L1Cache_Controller.NP.Store::total         3229                      
system.ruby.L1Cache_Controller.NP.Inv    |           0      0.00%      0.00% |          35     38.89%     38.89% |          19     21.11%     60.00% |           8      8.89%     68.89% |          27     30.00%     98.89% |           0      0.00%     98.89% |           1      1.11%    100.00%
system.ruby.L1Cache_Controller.NP.Inv::total           90                      
system.ruby.L1Cache_Controller.I.Load    |          15      1.66%      1.66% |         117     12.97%     14.63% |         145     16.08%     30.71% |         336     37.25%     67.96% |         289     32.04%    100.00% |           0      0.00%    100.00% |           0      0.00%    100.00%
system.ruby.L1Cache_Controller.I.Load::total          902                      
system.ruby.L1Cache_Controller.I.Store   |           0      0.00%      0.00% |         377     17.48%     17.48% |         390     18.08%     35.56% |         695     32.22%     67.78% |         695     32.22%    100.00% |           0      0.00%    100.00% |           0      0.00%    100.00%
system.ruby.L1Cache_Controller.I.Store::total         2157                      
system.ruby.L1Cache_Controller.I.L1_Replacement |          17      3.93%      3.93% |          57     13.16%     17.09% |          87     20.09%     37.18% |         117     27.02%     64.20% |         147     33.95%     98.15% |           0      0.00%     98.15% |           8      1.85%    100.00%
system.ruby.L1Cache_Controller.I.L1_Replacement::total          433                      
system.ruby.L1Cache_Controller.S.Load    |          31      0.02%      0.02% |       58907     29.21%     29.22% |       44799     22.21%     51.43% |       41317     20.48%     71.92% |       56642     28.08%    100.00% |           0      0.00%    100.00% |           0      0.00%    100.00%
system.ruby.L1Cache_Controller.S.Load::total       201696                      
system.ruby.L1Cache_Controller.S.Ifetch  |     2359857    100.00%    100.00% |           0      0.00%    100.00% |           0      0.00%    100.00% |           0      0.00%    100.00% |           0      0.00%    100.00% |           0      0.00%    100.00% |           0      0.00%    100.00%
system.ruby.L1Cache_Controller.S.Ifetch::total      2359857                      
system.ruby.L1Cache_Controller.S.Store   |           2      0.27%      0.27% |          96     12.92%     13.19% |          62      8.34%     21.53% |         320     43.07%     64.60% |         263     35.40%    100.00% |           0      0.00%    100.00% |           0      0.00%    100.00%
system.ruby.L1Cache_Controller.S.Store::total          743                      
system.ruby.L1Cache_Controller.S.Inv     |          82      7.73%      7.73% |         184     17.34%     25.07% |         191     18.00%     43.07% |         275     25.92%     68.99% |         320     30.16%     99.15% |           0      0.00%     99.15% |           9      0.85%    100.00%
system.ruby.L1Cache_Controller.S.Inv::total         1061                      
system.ruby.L1Cache_Controller.S.L1_Replacement |         850     11.02%     11.02% |        1186     15.37%     26.39% |        1701     22.05%     48.44% |        2118     27.45%     75.89% |        1607     20.83%     96.72% |           0      0.00%     96.72% |         253      3.28%    100.00%
system.ruby.L1Cache_Controller.S.L1_Replacement::total         7715                      
system.ruby.L1Cache_Controller.E.Load    |      137712     99.34%     99.34% |          41      0.03%     99.37% |         570      0.41%     99.78% |         171      0.12%     99.91% |         129      0.09%    100.00% |           0      0.00%    100.00% |           0      0.00%    100.00%
system.ruby.L1Cache_Controller.E.Load::total       138623                      
system.ruby.L1Cache_Controller.E.Store   |          72     57.60%     57.60% |           0      0.00%     57.60% |           3      2.40%     60.00% |          50     40.00%    100.00% |           0      0.00%    100.00% |           0      0.00%    100.00% |           0      0.00%    100.00%
system.ruby.L1Cache_Controller.E.Store::total          125                      
system.ruby.L1Cache_Controller.E.L1_Replacement |         895     78.37%     78.37% |           0      0.00%     78.37% |          22      1.93%     80.30% |          47      4.12%     84.41% |           1      0.09%     84.50% |           0      0.00%     84.50% |         177     15.50%    100.00%
system.ruby.L1Cache_Controller.E.L1_Replacement::total         1142                      
system.ruby.L1Cache_Controller.E.Fwd_GETX |           7     87.50%     87.50% |           1     12.50%    100.00% |           0      0.00%    100.00% |           0      0.00%    100.00% |           0      0.00%    100.00% |           0      0.00%    100.00% |           0      0.00%    100.00%
system.ruby.L1Cache_Controller.E.Fwd_GETX::total            8                      
system.ruby.L1Cache_Controller.E.Fwd_GETS |           1      0.57%      0.57% |           9      5.11%      5.68% |          42     23.86%     29.55% |          67     38.07%     67.61% |          57     32.39%    100.00% |           0      0.00%    100.00% |           0      0.00%    100.00%
system.ruby.L1Cache_Controller.E.Fwd_GETS::total          176                      
system.ruby.L1Cache_Controller.M.Load    |      168051     96.68%     96.68% |         709      0.41%     97.09% |        1463      0.84%     97.93% |        1989      1.14%     99.08% |        1604      0.92%    100.00% |           0      0.00%    100.00% |           0      0.00%    100.00%
system.ruby.L1Cache_Controller.M.Load::total       173816                      
system.ruby.L1Cache_Controller.M.Store   |      170332     94.58%     94.58% |        1910      1.06%     95.64% |        2007      1.11%     96.76% |        2788      1.55%     98.30% |        3056      1.70%    100.00% |           0      0.00%    100.00% |           0      0.00%    100.00%
system.ruby.L1Cache_Controller.M.Store::total       180093                      
system.ruby.L1Cache_Controller.M.L1_Replacement |         345     18.44%     18.44% |         258     13.79%     32.23% |         206     11.01%     43.24% |         387     20.68%     63.92% |         274     14.64%     78.57% |           0      0.00%     78.57% |         401     21.43%    100.00%
system.ruby.L1Cache_Controller.M.L1_Replacement::total         1871                      
system.ruby.L1Cache_Controller.M.Fwd_GETX |           1      0.03%      0.03% |         505     17.37%     17.41% |         597     20.54%     37.94% |         880     30.27%     68.21% |         924     31.79%    100.00% |           0      0.00%    100.00% |           0      0.00%    100.00%
system.ruby.L1Cache_Controller.M.Fwd_GETX::total         2907                      
system.ruby.L1Cache_Controller.M.Fwd_GETS |          79      6.63%      6.63% |         165     13.84%     20.47% |          74      6.21%     26.68% |         498     41.78%     68.46% |         361     30.29%     98.74% |           0      0.00%     98.74% |          15      1.26%    100.00%
system.ruby.L1Cache_Controller.M.Fwd_GETS::total         1192                      
system.ruby.L1Cache_Controller.IS.L1_Replacement |           0      0.00%      0.00% |           0      0.00%      0.00% |           0      0.00%      0.00% |           4      0.19%      0.19% |           0      0.00%      0.19% |           0      0.00%      0.19% |        2087     99.81%    100.00%
system.ruby.L1Cache_Controller.IS.L1_Replacement::total         2091                      
system.ruby.L1Cache_Controller.IS.Data_Exclusive |        1344     73.85%     73.85% |          10      0.55%     74.40% |          67      3.68%     78.08% |         164      9.01%     87.09% |          58      3.19%     90.27% |           0      0.00%     90.27% |         177      9.73%    100.00%
system.ruby.L1Cache_Controller.IS.Data_Exclusive::total         1820                      
system.ruby.L1Cache_Controller.IS.DataS_fromL1 |           7      0.51%      0.51% |         177     12.94%     13.45% |         196     14.33%     27.78% |         410     29.97%     57.75% |         337     24.63%     82.38% |           0      0.00%     82.38% |         241     17.62%    100.00%
system.ruby.L1Cache_Controller.IS.DataS_fromL1::total         1368                      
system.ruby.L1Cache_Controller.IS.Data_all_Acks |        1094     13.41%     13.41% |        1351     16.56%     29.97% |        1859     22.79%     52.76% |        2141     26.24%     79.00% |        1707     20.92%     99.93% |           0      0.00%     99.93% |           6      0.07%    100.00%
system.ruby.L1Cache_Controller.IS.Data_all_Acks::total         8158                      
system.ruby.L1Cache_Controller.IM.L1_Replacement |           0      0.00%      0.00% |          75      6.00%      6.00% |          76      6.08%     12.08% |          67      5.36%     17.44% |          50      4.00%     21.44% |           0      0.00%     21.44% |         982     78.56%    100.00%
system.ruby.L1Cache_Controller.IM.L1_Replacement::total         1250                      
system.ruby.L1Cache_Controller.IM.Data   |           0      0.00%      0.00% |          10     12.35%     12.35% |          14     17.28%     29.63% |           9     11.11%     40.74% |          14     17.28%     58.02% |           0      0.00%     58.02% |          34     41.98%    100.00%
system.ruby.L1Cache_Controller.IM.Data::total           81                      
system.ruby.L1Cache_Controller.IM.Data_all_Acks |         433      8.11%      8.11% |         826     15.46%     23.57% |         895     16.75%     40.32% |        1487     27.84%     68.16% |        1312     24.56%     92.72% |           0      0.00%     92.72% |         389      7.28%    100.00%
system.ruby.L1Cache_Controller.IM.Data_all_Acks::total         5342                      
system.ruby.L1Cache_Controller.IM.Ack    |           0      0.00%      0.00% |           0      0.00%      0.00% |           2      4.00%      4.00% |           0      0.00%      4.00% |           0      0.00%      4.00% |           0      0.00%      4.00% |          48     96.00%    100.00%
system.ruby.L1Cache_Controller.IM.Ack::total           50                      
system.ruby.L1Cache_Controller.SM.Inv    |           0      0.00%      0.00% |           3      8.11%      8.11% |           6     16.22%     24.32% |          11     29.73%     54.05% |          17     45.95%    100.00% |           0      0.00%    100.00% |           0      0.00%    100.00%
system.ruby.L1Cache_Controller.SM.Inv::total           37                      
system.ruby.L1Cache_Controller.SM.L1_Replacement |           0      0.00%      0.00% |           0      0.00%      0.00% |           0      0.00%      0.00% |           2     33.33%     33.33% |           0      0.00%     33.33% |           0      0.00%     33.33% |           4     66.67%    100.00%
system.ruby.L1Cache_Controller.SM.L1_Replacement::total            6                      
system.ruby.L1Cache_Controller.SM.Ack    |           2      0.19%      0.19% |         135     12.77%     12.96% |          91      8.61%     21.57% |         540     51.09%     72.66% |         289     27.34%    100.00% |           0      0.00%    100.00% |           0      0.00%    100.00%
system.ruby.L1Cache_Controller.SM.Ack::total         1057                      
system.ruby.L1Cache_Controller.SM.Ack_all |           2      0.25%      0.25% |         103     13.09%     13.34% |          70      8.89%     22.24% |         318     40.41%     62.64% |         260     33.04%     95.68% |           0      0.00%     95.68% |          34      4.32%    100.00%
system.ruby.L1Cache_Controller.SM.Ack_all::total          787                      
system.ruby.L1Cache_Controller.M_I.Ifetch |           1    100.00%    100.00% |           0      0.00%    100.00% |           0      0.00%    100.00% |           0      0.00%    100.00% |           0      0.00%    100.00% |           0      0.00%    100.00% |           0      0.00%    100.00%
system.ruby.L1Cache_Controller.M_I.Ifetch::total            1                      
system.ruby.L1Cache_Controller.M_I.Store |           0      0.00%      0.00% |           0      0.00%      0.00% |           0      0.00%      0.00% |           5    100.00%    100.00% |           0      0.00%    100.00% |           0      0.00%    100.00% |           0      0.00%    100.00%
system.ruby.L1Cache_Controller.M_I.Store::total            5                      
system.ruby.L1Cache_Controller.M_I.Fwd_GETX |           0      0.00%      0.00% |           0      0.00%      0.00% |           0      0.00%      0.00% |           0      0.00%      0.00% |           1    100.00%    100.00% |           0      0.00%    100.00% |           0      0.00%    100.00%
system.ruby.L1Cache_Controller.M_I.Fwd_GETX::total            1                      
system.ruby.L1Cache_Controller.M_I.WB_Ack |        1240     41.17%     41.17% |         258      8.57%     49.73% |         228      7.57%     57.30% |         434     14.41%     71.71% |         274      9.10%     80.81% |           0      0.00%     80.81% |         578     19.19%    100.00%
system.ruby.L1Cache_Controller.M_I.WB_Ack::total         3012                      
system.ruby.L1Cache_Controller.SINK_WB_ACK.WB_Ack |           0      0.00%      0.00% |           0      0.00%      0.00% |           0      0.00%      0.00% |           0      0.00%      0.00% |           1    100.00%    100.00% |           0      0.00%    100.00% |           0      0.00%    100.00%
system.ruby.L1Cache_Controller.SINK_WB_ACK.WB_Ack::total            1                      
system.ruby.L2Cache_Controller.L1_GET_INSTR         1348      0.00%      0.00%
system.ruby.L2Cache_Controller.L1_GETS          10041      0.00%      0.00%
system.ruby.L2Cache_Controller.L1_GETX           6041      0.00%      0.00%
system.ruby.L2Cache_Controller.L1_UPGRADE          745      0.00%      0.00%
system.ruby.L2Cache_Controller.L1_PUTX           3013      0.00%      0.00%
system.ruby.L2Cache_Controller.L1_PUTX_old            1      0.00%      0.00%
system.ruby.L2Cache_Controller.Mem_Data          2820      0.00%      0.00%
system.ruby.L2Cache_Controller.WB_Data           1192      0.00%      0.00%
system.ruby.L2Cache_Controller.WB_Data_clean          176      0.00%      0.00%
system.ruby.L2Cache_Controller.Unblock           1368      0.00%      0.00%
system.ruby.L2Cache_Controller.Exclusive_Unblock         7949      0.00%      0.00%
system.ruby.L2Cache_Controller.NP.L1_GET_INSTR          637      0.00%      0.00%
system.ruby.L2Cache_Controller.NP.L1_GETS          636      0.00%      0.00%
system.ruby.L2Cache_Controller.NP.L1_GETX         1547      0.00%      0.00%
system.ruby.L2Cache_Controller.SS.L1_GET_INSTR          611      0.00%      0.00%
system.ruby.L2Cache_Controller.SS.L1_GETS         6810      0.00%      0.00%
system.ruby.L2Cache_Controller.SS.L1_GETX          130      0.00%      0.00%
system.ruby.L2Cache_Controller.SS.L1_UPGRADE          706      0.00%      0.00%
system.ruby.L2Cache_Controller.M.L1_GET_INSTR            5      0.00%      0.00%
system.ruby.L2Cache_Controller.M.L1_GETS         1184      0.00%      0.00%
system.ruby.L2Cache_Controller.M.L1_GETX          830      0.00%      0.00%
system.ruby.L2Cache_Controller.MT.L1_GETS         1368      0.00%      0.00%
system.ruby.L2Cache_Controller.MT.L1_GETX         2916      0.00%      0.00%
system.ruby.L2Cache_Controller.MT.L1_PUTX         3012      0.00%      0.00%
system.ruby.L2Cache_Controller.MT.L1_PUTX_old            1      0.00%      0.00%
system.ruby.L2Cache_Controller.ISS.Mem_Data          636      0.00%      0.00%
system.ruby.L2Cache_Controller.IS.L1_GET_INSTR           95      0.00%      0.00%
system.ruby.L2Cache_Controller.IS.Mem_Data          637      0.00%      0.00%
system.ruby.L2Cache_Controller.IM.Mem_Data         1547      0.00%      0.00%
system.ruby.L2Cache_Controller.SS_MB.L1_GETS            9      0.00%      0.00%
system.ruby.L2Cache_Controller.SS_MB.L1_GETX            8      0.00%      0.00%
system.ruby.L2Cache_Controller.SS_MB.L1_UPGRADE           37      0.00%      0.00%
system.ruby.L2Cache_Controller.SS_MB.Exclusive_Unblock          836      0.00%      0.00%
system.ruby.L2Cache_Controller.MT_MB.L1_GETS           12      0.00%      0.00%
system.ruby.L2Cache_Controller.MT_MB.L1_GETX          605      0.00%      0.00%
system.ruby.L2Cache_Controller.MT_MB.L1_PUTX            1      0.00%      0.00%
system.ruby.L2Cache_Controller.MT_MB.Exclusive_Unblock         7113      0.00%      0.00%
system.ruby.L2Cache_Controller.MT_IIB.L1_GETS           21      0.00%      0.00%
system.ruby.L2Cache_Controller.MT_IIB.L1_GETX            5      0.00%      0.00%
system.ruby.L2Cache_Controller.MT_IIB.L1_UPGRADE            2      0.00%      0.00%
system.ruby.L2Cache_Controller.MT_IIB.WB_Data          151      0.00%      0.00%
system.ruby.L2Cache_Controller.MT_IIB.WB_Data_clean           21      0.00%      0.00%
system.ruby.L2Cache_Controller.MT_IIB.Unblock         1196      0.00%      0.00%
system.ruby.L2Cache_Controller.MT_IB.L1_GETS            1      0.00%      0.00%
system.ruby.L2Cache_Controller.MT_IB.WB_Data         1041      0.00%      0.00%
system.ruby.L2Cache_Controller.MT_IB.WB_Data_clean          155      0.00%      0.00%
system.ruby.L2Cache_Controller.MT_SB.Unblock          172      0.00%      0.00%

---------- End Simulation Statistics   ----------
