
---------- Begin Simulation Statistics ----------
sim_seconds                                  0.006736                       # Number of seconds simulated
sim_ticks                                  6736424000                       # Number of ticks simulated
final_tick                                 6736424000                       # Number of ticks from beginning of simulation (restored from checkpoints and never reset)
sim_freq                                 1000000000000                       # Frequency of simulated ticks
host_inst_rate                                  14808                       # Simulator instruction rate (inst/s)
host_op_rate                                    24360                       # Simulator op (including micro ops) rate (op/s)
host_tick_rate                               60299116                       # Simulator tick rate (ticks/s)
host_mem_usage                                4526432                       # Number of bytes of host memory used
host_seconds                                   111.72                       # Real time elapsed on the host
sim_insts                                     1654267                       # Number of instructions simulated
sim_ops                                       2721468                       # Number of ops (including micro ops) simulated
system.voltage_domain.voltage                       1                       # Voltage in Volts
system.clk_domain.clock                          1000                       # Clock period in ticks
system.mem_ctrls.clk_domain.clock                2500                       # Clock period in ticks
system.mem_ctrls.bytes_read::ruby.dir_cntrl0       360960                       # Number of bytes read from this memory
system.mem_ctrls.bytes_read::total             360960                       # Number of bytes read from this memory
system.mem_ctrls.num_reads::ruby.dir_cntrl0         2820                       # Number of read requests responded to by this memory
system.mem_ctrls.num_reads::total                2820                       # Number of read requests responded to by this memory
system.mem_ctrls.bw_read::ruby.dir_cntrl0     53583326                       # Total read bandwidth from this memory (bytes/s)
system.mem_ctrls.bw_read::total              53583326                       # Total read bandwidth from this memory (bytes/s)
system.mem_ctrls.bw_total::ruby.dir_cntrl0     53583326                       # Total bandwidth to/from this memory (bytes/s)
system.mem_ctrls.bw_total::total             53583326                       # Total bandwidth to/from this memory (bytes/s)
system.mem_ctrls.memReq                          2820                       # Total number of memory requests
system.mem_ctrls.memRead                         2820                       # Number of memory reads
system.mem_ctrls.memRefresh                     13248                       # Number of memory refreshes
system.mem_ctrls.memWaitCycles                  24277                       # Delay stalled at the head of the bank queue
system.mem_ctrls.memInputQ                      14266                       # Delay in the input queue
system.mem_ctrls.memBankQ                       70734                       # Delay behind the head of the bank queue
system.mem_ctrls.totalStalls                   109277                       # Total number of stall cycles
system.mem_ctrls.stallsPerReq               38.750709                       # Expected number of stall cycles per request
system.mem_ctrls.memBankBusy                     5698                       # memory stalls due to busy bank
system.mem_ctrls.memBusBusy                      6470                       # memory stalls due to busy bus
system.mem_ctrls.memDataBusBusy                  2593                       # memory stalls due to read read turnaround
system.mem_ctrls.memArbWait                      3893                       # memory stalls due to arbitration
system.mem_ctrls.memNotOld                       5623                       # memory stalls due to anti starvation
system.mem_ctrls.memBankCount            |         100      3.55%      3.55% |          83      2.94%      6.49% |          90      3.19%      9.68% |          88      3.12%     12.80% |          85      3.01%     15.82% |          87      3.09%     18.90% |          82      2.91%     21.81% |          77      2.73%     24.54% |          75      2.66%     27.20% |          74      2.62%     29.82% |          76      2.70%     32.52% |          86      3.05%     35.57% |          80      2.84%     38.40% |          84      2.98%     41.38% |          96      3.40%     44.79% |         109      3.87%     48.65% |          99      3.51%     52.16% |          88      3.12%     55.28% |          86      3.05%     58.33% |          90      3.19%     61.52% |          91      3.23%     64.75% |          93      3.30%     68.05% |          85      3.01%     71.06% |          83      2.94%     74.01% |          86      3.05%     77.06% |          90      3.19%     80.25% |          91      3.23%     83.48% |          96      3.40%     86.88% |          88      3.12%     90.00% |          94      3.33%     93.33% |          91      3.23%     96.56% |          97      3.44%    100.00% # Number of accesses per bank
system.mem_ctrls.memBankCount::total             2820                       # Number of accesses per bank
system.ruby_clk_domain.clock                      500                       # Clock period in ticks
system.ruby.phys_mem.bytes_read::writebacks        45404                       # Number of bytes read from this memory
system.ruby.phys_mem.bytes_read::cpu.inst     18875448                       # Number of bytes read from this memory
system.ruby.phys_mem.bytes_read::cpu.data      2306982                       # Number of bytes read from this memory
system.ruby.phys_mem.bytes_read::gpu.ce         53252                       # Number of bytes read from this memory
system.ruby.phys_mem.bytes_read::gpu.shader_cores0.data      2046080                       # Number of bytes read from this memory
system.ruby.phys_mem.bytes_read::gpu.shader_cores0.inst         1200                       # Number of bytes read from this memory
system.ruby.phys_mem.bytes_read::gpu.shader_cores1.data      1671008                       # Number of bytes read from this memory
system.ruby.phys_mem.bytes_read::gpu.shader_cores1.inst         1392                       # Number of bytes read from this memory
system.ruby.phys_mem.bytes_read::gpu.shader_cores2.data      1623136                       # Number of bytes read from this memory
system.ruby.phys_mem.bytes_read::gpu.shader_cores2.inst         1816                       # Number of bytes read from this memory
system.ruby.phys_mem.bytes_read::gpu.shader_cores3.data      2079072                       # Number of bytes read from this memory
system.ruby.phys_mem.bytes_read::gpu.shader_cores3.inst         1672                       # Number of bytes read from this memory
system.ruby.phys_mem.bytes_read::total       28706462                       # Number of bytes read from this memory
system.ruby.phys_mem.bytes_inst_read::cpu.inst     18875448                       # Number of instructions bytes read from this memory
system.ruby.phys_mem.bytes_inst_read::gpu.shader_cores0.inst         1200                       # Number of instructions bytes read from this memory
system.ruby.phys_mem.bytes_inst_read::gpu.shader_cores1.inst         1392                       # Number of instructions bytes read from this memory
system.ruby.phys_mem.bytes_inst_read::gpu.shader_cores2.inst         1816                       # Number of instructions bytes read from this memory
system.ruby.phys_mem.bytes_inst_read::gpu.shader_cores3.inst         1672                       # Number of instructions bytes read from this memory
system.ruby.phys_mem.bytes_inst_read::total     18881528                       # Number of instructions bytes read from this memory
system.ruby.phys_mem.bytes_written::writebacks        45404                       # Number of bytes written to this memory
system.ruby.phys_mem.bytes_written::cpu.data      1151824                       # Number of bytes written to this memory
system.ruby.phys_mem.bytes_written::gpu.ce        53252                       # Number of bytes written to this memory
system.ruby.phys_mem.bytes_written::gpu.shader_cores0.data        34348                       # Number of bytes written to this memory
system.ruby.phys_mem.bytes_written::gpu.shader_cores1.data        34172                       # Number of bytes written to this memory
system.ruby.phys_mem.bytes_written::gpu.shader_cores2.data        64320                       # Number of bytes written to this memory
system.ruby.phys_mem.bytes_written::gpu.shader_cores3.data        36908                       # Number of bytes written to this memory
system.ruby.phys_mem.bytes_written::total      1420228                       # Number of bytes written to this memory
system.ruby.phys_mem.num_reads::writebacks        11351                       # Number of read requests responded to by this memory
system.ruby.phys_mem.num_reads::cpu.inst      2359431                       # Number of read requests responded to by this memory
system.ruby.phys_mem.num_reads::cpu.data       312285                       # Number of read requests responded to by this memory
system.ruby.phys_mem.num_reads::gpu.ce            424                       # Number of read requests responded to by this memory
system.ruby.phys_mem.num_reads::gpu.shader_cores0.data        61108                       # Number of read requests responded to by this memory
system.ruby.phys_mem.num_reads::gpu.shader_cores0.inst           50                       # Number of read requests responded to by this memory
system.ruby.phys_mem.num_reads::gpu.shader_cores1.data        48811                       # Number of read requests responded to by this memory
system.ruby.phys_mem.num_reads::gpu.shader_cores1.inst           58                       # Number of read requests responded to by this memory
system.ruby.phys_mem.num_reads::gpu.shader_cores2.data        45955                       # Number of read requests responded to by this memory
system.ruby.phys_mem.num_reads::gpu.shader_cores2.inst           76                       # Number of read requests responded to by this memory
system.ruby.phys_mem.num_reads::gpu.shader_cores3.data        60613                       # Number of read requests responded to by this memory
system.ruby.phys_mem.num_reads::gpu.shader_cores3.inst           70                       # Number of read requests responded to by this memory
system.ruby.phys_mem.num_reads::total         2900232                       # Number of read requests responded to by this memory
system.ruby.phys_mem.num_writes::writebacks        11351                       # Number of write requests responded to by this memory
system.ruby.phys_mem.num_writes::cpu.data       165306                       # Number of write requests responded to by this memory
system.ruby.phys_mem.num_writes::gpu.ce           423                       # Number of write requests responded to by this memory
system.ruby.phys_mem.num_writes::gpu.shader_cores0.data         2337                       # Number of write requests responded to by this memory
system.ruby.phys_mem.num_writes::gpu.shader_cores1.data         2409                       # Number of write requests responded to by this memory
system.ruby.phys_mem.num_writes::gpu.shader_cores2.data         2752                       # Number of write requests responded to by this memory
system.ruby.phys_mem.num_writes::gpu.shader_cores3.data         2875                       # Number of write requests responded to by this memory
system.ruby.phys_mem.num_writes::total         187453                       # Number of write requests responded to by this memory
system.ruby.phys_mem.bw_read::writebacks      6740075                       # Total read bandwidth from this memory (bytes/s)
system.ruby.phys_mem.bw_read::cpu.inst     2801998212                       # Total read bandwidth from this memory (bytes/s)
system.ruby.phys_mem.bw_read::cpu.data      342463895                       # Total read bandwidth from this memory (bytes/s)
system.ruby.phys_mem.bw_read::gpu.ce          7905084                       # Total read bandwidth from this memory (bytes/s)
system.ruby.phys_mem.bw_read::gpu.shader_cores0.data    303733850                       # Total read bandwidth from this memory (bytes/s)
system.ruby.phys_mem.bw_read::gpu.shader_cores0.inst       178136                       # Total read bandwidth from this memory (bytes/s)
system.ruby.phys_mem.bw_read::gpu.shader_cores1.data    248055645                       # Total read bandwidth from this memory (bytes/s)
system.ruby.phys_mem.bw_read::gpu.shader_cores1.inst       206638                       # Total read bandwidth from this memory (bytes/s)
system.ruby.phys_mem.bw_read::gpu.shader_cores2.data    240949204                       # Total read bandwidth from this memory (bytes/s)
system.ruby.phys_mem.bw_read::gpu.shader_cores2.inst       269579                       # Total read bandwidth from this memory (bytes/s)
system.ruby.phys_mem.bw_read::gpu.shader_cores3.data    308631404                       # Total read bandwidth from this memory (bytes/s)
system.ruby.phys_mem.bw_read::gpu.shader_cores3.inst       248203                       # Total read bandwidth from this memory (bytes/s)
system.ruby.phys_mem.bw_read::total        4261379925                       # Total read bandwidth from this memory (bytes/s)
system.ruby.phys_mem.bw_inst_read::cpu.inst   2801998212                       # Instruction read bandwidth from this memory (bytes/s)
system.ruby.phys_mem.bw_inst_read::gpu.shader_cores0.inst       178136                       # Instruction read bandwidth from this memory (bytes/s)
system.ruby.phys_mem.bw_inst_read::gpu.shader_cores1.inst       206638                       # Instruction read bandwidth from this memory (bytes/s)
system.ruby.phys_mem.bw_inst_read::gpu.shader_cores2.inst       269579                       # Instruction read bandwidth from this memory (bytes/s)
system.ruby.phys_mem.bw_inst_read::gpu.shader_cores3.inst       248203                       # Instruction read bandwidth from this memory (bytes/s)
system.ruby.phys_mem.bw_inst_read::total   2802900768                       # Instruction read bandwidth from this memory (bytes/s)
system.ruby.phys_mem.bw_write::writebacks      6740075                       # Write bandwidth from this memory (bytes/s)
system.ruby.phys_mem.bw_write::cpu.data     170984487                       # Write bandwidth from this memory (bytes/s)
system.ruby.phys_mem.bw_write::gpu.ce         7905084                       # Write bandwidth from this memory (bytes/s)
system.ruby.phys_mem.bw_write::gpu.shader_cores0.data      5098848                       # Write bandwidth from this memory (bytes/s)
system.ruby.phys_mem.bw_write::gpu.shader_cores1.data      5072721                       # Write bandwidth from this memory (bytes/s)
system.ruby.phys_mem.bw_write::gpu.shader_cores2.data      9548093                       # Write bandwidth from this memory (bytes/s)
system.ruby.phys_mem.bw_write::gpu.shader_cores3.data      5478871                       # Write bandwidth from this memory (bytes/s)
system.ruby.phys_mem.bw_write::total        210828178                       # Write bandwidth from this memory (bytes/s)
system.ruby.phys_mem.bw_total::writebacks     13480149                       # Total bandwidth to/from this memory (bytes/s)
system.ruby.phys_mem.bw_total::cpu.inst    2801998212                       # Total bandwidth to/from this memory (bytes/s)
system.ruby.phys_mem.bw_total::cpu.data     513448382                       # Total bandwidth to/from this memory (bytes/s)
system.ruby.phys_mem.bw_total::gpu.ce        15810169                       # Total bandwidth to/from this memory (bytes/s)
system.ruby.phys_mem.bw_total::gpu.shader_cores0.data    308832698                       # Total bandwidth to/from this memory (bytes/s)
system.ruby.phys_mem.bw_total::gpu.shader_cores0.inst       178136                       # Total bandwidth to/from this memory (bytes/s)
system.ruby.phys_mem.bw_total::gpu.shader_cores1.data    253128366                       # Total bandwidth to/from this memory (bytes/s)
system.ruby.phys_mem.bw_total::gpu.shader_cores1.inst       206638                       # Total bandwidth to/from this memory (bytes/s)
system.ruby.phys_mem.bw_total::gpu.shader_cores2.data    250497296                       # Total bandwidth to/from this memory (bytes/s)
system.ruby.phys_mem.bw_total::gpu.shader_cores2.inst       269579                       # Total bandwidth to/from this memory (bytes/s)
system.ruby.phys_mem.bw_total::gpu.shader_cores3.data    314110276                       # Total bandwidth to/from this memory (bytes/s)
system.ruby.phys_mem.bw_total::gpu.shader_cores3.inst       248203                       # Total bandwidth to/from this memory (bytes/s)
system.ruby.phys_mem.bw_total::total       4472208103                       # Total bandwidth to/from this memory (bytes/s)
system.cpu_voltage_domain.voltage                   1                       # Voltage in Volts
system.cpu_clk_domain.clock                       500                       # Clock period in ticks
system.cpu.apic_clk_domain.clock                 8000                       # Clock period in ticks
system.cpu.workload.num_syscalls                   28                       # Number of system calls
system.cpu.numCycles                         13472848                       # number of cpu cycles simulated
system.cpu.numWorkItemsStarted                      1                       # number of work items this cpu started
system.cpu.numWorkItemsCompleted                    1                       # number of work items this cpu completed
system.cpu.committedInsts                     1654267                       # Number of instructions committed
system.cpu.committedOps                       2721468                       # Number of ops (including micro ops) committed
system.cpu.num_int_alu_accesses               1972435                       # Number of integer alu accesses
system.cpu.num_fp_alu_accesses                1026052                       # Number of float alu accesses
system.cpu.num_func_calls                       31638                       # number of times a function call or return occured
system.cpu.num_conditional_control_insts       149016                       # number of instructions that are conditional controls
system.cpu.num_int_insts                      1972435                       # number of integer instructions
system.cpu.num_fp_insts                       1026052                       # number of float instructions
system.cpu.num_int_register_reads             3732986                       # number of times the integer registers were read
system.cpu.num_int_register_writes            1433339                       # number of times the integer registers were written
system.cpu.num_fp_register_reads              1957942                       # number of times the floating registers were read
system.cpu.num_fp_register_writes              903313                       # number of times the floating registers were written
system.cpu.num_cc_register_reads              1055483                       # number of times the CC registers were read
system.cpu.num_cc_register_writes              672994                       # number of times the CC registers were written
system.cpu.num_mem_refs                        477586                       # number of memory refs
system.cpu.num_load_insts                      312280                       # Number of load instructions
system.cpu.num_store_insts                     165306                       # Number of store instructions
system.cpu.num_idle_cycles               1841890.271727                       # Number of idle cycles
system.cpu.num_busy_cycles               11630957.728273                       # Number of busy cycles
system.cpu.not_idle_fraction                 0.863289                       # Percentage of non-idle cycles
system.cpu.idle_fraction                     0.136711                       # Percentage of idle cycles
system.cpu.Branches                            196313                       # Number of branches fetched
system.cpu.op_class::No_OpClass                  2258      0.08%      0.08% # Class of executed instruction
system.cpu.op_class::IntAlu                   1716749     63.08%     63.16% # Class of executed instruction
system.cpu.op_class::IntMult                    18031      0.66%     63.83% # Class of executed instruction
system.cpu.op_class::IntDiv                      1263      0.05%     63.87% # Class of executed instruction
system.cpu.op_class::FloatAdd                  505581     18.58%     82.45% # Class of executed instruction
system.cpu.op_class::FloatCmp                       0      0.00%     82.45% # Class of executed instruction
system.cpu.op_class::FloatCvt                       0      0.00%     82.45% # Class of executed instruction
system.cpu.op_class::FloatMult                      0      0.00%     82.45% # Class of executed instruction
system.cpu.op_class::FloatDiv                       0      0.00%     82.45% # Class of executed instruction
system.cpu.op_class::FloatSqrt                      0      0.00%     82.45% # Class of executed instruction
system.cpu.op_class::SimdAdd                        0      0.00%     82.45% # Class of executed instruction
system.cpu.op_class::SimdAddAcc                     0      0.00%     82.45% # Class of executed instruction
system.cpu.op_class::SimdAlu                        0      0.00%     82.45% # Class of executed instruction
system.cpu.op_class::SimdCmp                        0      0.00%     82.45% # Class of executed instruction
system.cpu.op_class::SimdCvt                        0      0.00%     82.45% # Class of executed instruction
system.cpu.op_class::SimdMisc                       0      0.00%     82.45% # Class of executed instruction
system.cpu.op_class::SimdMult                       0      0.00%     82.45% # Class of executed instruction
system.cpu.op_class::SimdMultAcc                    0      0.00%     82.45% # Class of executed instruction
system.cpu.op_class::SimdShift                      0      0.00%     82.45% # Class of executed instruction
system.cpu.op_class::SimdShiftAcc                   0      0.00%     82.45% # Class of executed instruction
system.cpu.op_class::SimdSqrt                       0      0.00%     82.45% # Class of executed instruction
system.cpu.op_class::SimdFloatAdd                   0      0.00%     82.45% # Class of executed instruction
system.cpu.op_class::SimdFloatAlu                   0      0.00%     82.45% # Class of executed instruction
system.cpu.op_class::SimdFloatCmp                   0      0.00%     82.45% # Class of executed instruction
system.cpu.op_class::SimdFloatCvt                   0      0.00%     82.45% # Class of executed instruction
system.cpu.op_class::SimdFloatDiv                   0      0.00%     82.45% # Class of executed instruction
system.cpu.op_class::SimdFloatMisc                  0      0.00%     82.45% # Class of executed instruction
system.cpu.op_class::SimdFloatMult                  0      0.00%     82.45% # Class of executed instruction
system.cpu.op_class::SimdFloatMultAcc               0      0.00%     82.45% # Class of executed instruction
system.cpu.op_class::SimdFloatSqrt                  0      0.00%     82.45% # Class of executed instruction
system.cpu.op_class::MemRead                   312280     11.47%     93.93% # Class of executed instruction
system.cpu.op_class::MemWrite                  165306      6.07%    100.00% # Class of executed instruction
system.cpu.op_class::IprAccess                      0      0.00%    100.00% # Class of executed instruction
system.cpu.op_class::InstPrefetch                   0      0.00%    100.00% # Class of executed instruction
system.cpu.op_class::total                    2721468                       # Class of executed instruction
system.gpu.clk_domain.voltage_domain.voltage            1                       # Voltage in Volts
system.gpu.clk_domain.clock                      1429                       # Clock period in ticks
system.gpu.dram_wrapper.clk_domain.clock          541                       # Clock period in ticks
system.gpu.icnt_wrapper.clk_domain.clock         2858                       # Clock period in ticks
system.ruby.delayHist::bucket_size               1024                       # delay histogram for all message
system.ruby.delayHist::max_bucket               10239                       # delay histogram for all message
system.ruby.delayHist::samples                  60626                       # delay histogram for all message
system.ruby.delayHist::mean                 61.258420                       # delay histogram for all message
system.ruby.delayHist::stdev               495.410477                       # delay histogram for all message
system.ruby.delayHist                    |       60031     99.02%     99.02% |          30      0.05%     99.07% |          38      0.06%     99.13% |         130      0.21%     99.35% |         131      0.22%     99.56% |         142      0.23%     99.80% |         122      0.20%    100.00% |           0      0.00%    100.00% |           1      0.00%    100.00% |           1      0.00%    100.00% # delay histogram for all message
system.ruby.delayHist::total                    60626                       # delay histogram for all message
system.ruby.outstanding_req_hist::bucket_size            8                      
system.ruby.outstanding_req_hist::max_bucket           79                      
system.ruby.outstanding_req_hist::samples      3069641                      
system.ruby.outstanding_req_hist::mean       1.035271                      
system.ruby.outstanding_req_hist::gmean      1.008024                      
system.ruby.outstanding_req_hist::stdev      0.992546                      
system.ruby.outstanding_req_hist         |     3065986     99.88%     99.88% |        1678      0.05%     99.94% |         683      0.02%     99.96% |         565      0.02%     99.98% |         165      0.01%     99.98% |          44      0.00%     99.98% |          49      0.00%     99.98% |         350      0.01%    100.00% |         121      0.00%    100.00% |           0      0.00%    100.00%
system.ruby.outstanding_req_hist::total       3069641                      
system.ruby.latency_hist::bucket_size            1024                      
system.ruby.latency_hist::max_bucket            10239                      
system.ruby.latency_hist::samples             3069641                      
system.ruby.latency_hist::mean               3.795644                      
system.ruby.latency_hist::gmean              2.817604                      
system.ruby.latency_hist::stdev             42.916162                      
system.ruby.latency_hist                 |     3069004     99.98%     99.98% |         135      0.00%     99.98% |         268      0.01%     99.99% |         179      0.01%    100.00% |          44      0.00%    100.00% |          11      0.00%    100.00% |           0      0.00%    100.00% |           0      0.00%    100.00% |           0      0.00%    100.00% |           0      0.00%    100.00%
system.ruby.latency_hist::total               3069641                      
system.ruby.hit_latency_hist::bucket_size            1                      
system.ruby.hit_latency_hist::max_bucket            9                      
system.ruby.hit_latency_hist::samples         3052222                      
system.ruby.hit_latency_hist::mean           2.857167                      
system.ruby.hit_latency_hist::gmean          2.773620                      
system.ruby.hit_latency_hist::stdev          0.515039                      
system.ruby.hit_latency_hist             |           0      0.00%      0.00% |      217979      7.14%      7.14% |           0      0.00%      7.14% |     2834243     92.86%    100.00% |           0      0.00%    100.00% |           0      0.00%    100.00% |           0      0.00%    100.00% |           0      0.00%    100.00% |           0      0.00%    100.00% |           0      0.00%    100.00%
system.ruby.hit_latency_hist::total           3052222                      
system.ruby.miss_latency_hist::bucket_size         1024                      
system.ruby.miss_latency_hist::max_bucket        10239                      
system.ruby.miss_latency_hist::samples          17419                      
system.ruby.miss_latency_hist::mean        168.239049                      
system.ruby.miss_latency_hist::gmean        44.380463                      
system.ruby.miss_latency_hist::stdev       545.291519                      
system.ruby.miss_latency_hist            |       16782     96.34%     96.34% |         135      0.78%     97.12% |         268      1.54%     98.66% |         179      1.03%     99.68% |          44      0.25%     99.94% |          11      0.06%    100.00% |           0      0.00%    100.00% |           0      0.00%    100.00% |           0      0.00%    100.00% |           0      0.00%    100.00%
system.ruby.miss_latency_hist::total            17419                      
system.gpu.shader_mmu.numPagefaults                 0                       # Number of Pagefaults
system.gpu.shader_mmu.numPagewalks                 28                       # Number of Pagewalks
system.gpu.shader_mmu.totalRequests                28                       # Total number of requests
system.gpu.shader_mmu.retryFailures                 0                       # Times the retry walk after a pagefault failed
system.gpu.shader_mmu.l2hits                        0                       # Hits in the shared L2
system.gpu.shader_mmu.prefetchHits                  0                       # Number of prefetch hits
system.gpu.shader_mmu.numPrefetches                 0                       # Number of prefetchs
system.gpu.shader_mmu.prefetchFaults                0                       # Number of faults caused by prefetches
system.gpu.shader_mmu.pagefaultLatency::samples            0                       # Latency to complete the pagefault
system.gpu.shader_mmu.pagefaultLatency::mean          nan                       # Latency to complete the pagefault
system.gpu.shader_mmu.pagefaultLatency::gmean          nan                       # Latency to complete the pagefault
system.gpu.shader_mmu.pagefaultLatency::stdev          nan                       # Latency to complete the pagefault
system.gpu.shader_mmu.pagefaultLatency::0            0                       # Latency to complete the pagefault
system.gpu.shader_mmu.pagefaultLatency::1            0                       # Latency to complete the pagefault
system.gpu.shader_mmu.pagefaultLatency::2            0                       # Latency to complete the pagefault
system.gpu.shader_mmu.pagefaultLatency::3            0                       # Latency to complete the pagefault
system.gpu.shader_mmu.pagefaultLatency::4            0                       # Latency to complete the pagefault
system.gpu.shader_mmu.pagefaultLatency::5            0                       # Latency to complete the pagefault
system.gpu.shader_mmu.pagefaultLatency::6            0                       # Latency to complete the pagefault
system.gpu.shader_mmu.pagefaultLatency::7            0                       # Latency to complete the pagefault
system.gpu.shader_mmu.pagefaultLatency::8            0                       # Latency to complete the pagefault
system.gpu.shader_mmu.pagefaultLatency::9            0                       # Latency to complete the pagefault
system.gpu.shader_mmu.pagefaultLatency::10            0                       # Latency to complete the pagefault
system.gpu.shader_mmu.pagefaultLatency::11            0                       # Latency to complete the pagefault
system.gpu.shader_mmu.pagefaultLatency::12            0                       # Latency to complete the pagefault
system.gpu.shader_mmu.pagefaultLatency::13            0                       # Latency to complete the pagefault
system.gpu.shader_mmu.pagefaultLatency::14            0                       # Latency to complete the pagefault
system.gpu.shader_mmu.pagefaultLatency::15            0                       # Latency to complete the pagefault
system.gpu.shader_mmu.pagefaultLatency::16            0                       # Latency to complete the pagefault
system.gpu.shader_mmu.pagefaultLatency::17            0                       # Latency to complete the pagefault
system.gpu.shader_mmu.pagefaultLatency::18            0                       # Latency to complete the pagefault
system.gpu.shader_mmu.pagefaultLatency::19            0                       # Latency to complete the pagefault
system.gpu.shader_mmu.pagefaultLatency::20            0                       # Latency to complete the pagefault
system.gpu.shader_mmu.pagefaultLatency::21            0                       # Latency to complete the pagefault
system.gpu.shader_mmu.pagefaultLatency::22            0                       # Latency to complete the pagefault
system.gpu.shader_mmu.pagefaultLatency::23            0                       # Latency to complete the pagefault
system.gpu.shader_mmu.pagefaultLatency::24            0                       # Latency to complete the pagefault
system.gpu.shader_mmu.pagefaultLatency::25            0                       # Latency to complete the pagefault
system.gpu.shader_mmu.pagefaultLatency::26            0                       # Latency to complete the pagefault
system.gpu.shader_mmu.pagefaultLatency::27            0                       # Latency to complete the pagefault
system.gpu.shader_mmu.pagefaultLatency::28            0                       # Latency to complete the pagefault
system.gpu.shader_mmu.pagefaultLatency::29            0                       # Latency to complete the pagefault
system.gpu.shader_mmu.pagefaultLatency::30            0                       # Latency to complete the pagefault
system.gpu.shader_mmu.pagefaultLatency::31            0                       # Latency to complete the pagefault
system.gpu.shader_mmu.pagefaultLatency::total            0                       # Latency to complete the pagefault
system.gpu.shader_mmu.concurrentWalks::samples           28                       # Number of outstanding walks
system.gpu.shader_mmu.concurrentWalks::mean            0                       # Number of outstanding walks
system.gpu.shader_mmu.concurrentWalks::gmean            0                       # Number of outstanding walks
system.gpu.shader_mmu.concurrentWalks::stdev            0                       # Number of outstanding walks
system.gpu.shader_mmu.concurrentWalks::0           28    100.00%    100.00% # Number of outstanding walks
system.gpu.shader_mmu.concurrentWalks::1            0      0.00%    100.00% # Number of outstanding walks
system.gpu.shader_mmu.concurrentWalks::2            0      0.00%    100.00% # Number of outstanding walks
system.gpu.shader_mmu.concurrentWalks::3            0      0.00%    100.00% # Number of outstanding walks
system.gpu.shader_mmu.concurrentWalks::4            0      0.00%    100.00% # Number of outstanding walks
system.gpu.shader_mmu.concurrentWalks::5            0      0.00%    100.00% # Number of outstanding walks
system.gpu.shader_mmu.concurrentWalks::6            0      0.00%    100.00% # Number of outstanding walks
system.gpu.shader_mmu.concurrentWalks::7            0      0.00%    100.00% # Number of outstanding walks
system.gpu.shader_mmu.concurrentWalks::8            0      0.00%    100.00% # Number of outstanding walks
system.gpu.shader_mmu.concurrentWalks::9            0      0.00%    100.00% # Number of outstanding walks
system.gpu.shader_mmu.concurrentWalks::10            0      0.00%    100.00% # Number of outstanding walks
system.gpu.shader_mmu.concurrentWalks::11            0      0.00%    100.00% # Number of outstanding walks
system.gpu.shader_mmu.concurrentWalks::12            0      0.00%    100.00% # Number of outstanding walks
system.gpu.shader_mmu.concurrentWalks::13            0      0.00%    100.00% # Number of outstanding walks
system.gpu.shader_mmu.concurrentWalks::14            0      0.00%    100.00% # Number of outstanding walks
system.gpu.shader_mmu.concurrentWalks::15            0      0.00%    100.00% # Number of outstanding walks
system.gpu.shader_mmu.concurrentWalks::total           28                       # Number of outstanding walks
system.gpu.shader_mmu.pagewalkLatency::samples           28                       # Latency to complete the pagewalk
system.gpu.shader_mmu.pagewalkLatency::mean            0                       # Latency to complete the pagewalk
system.gpu.shader_mmu.pagewalkLatency::gmean            0                       # Latency to complete the pagewalk
system.gpu.shader_mmu.pagewalkLatency::stdev            0                       # Latency to complete the pagewalk
system.gpu.shader_mmu.pagewalkLatency::0           28    100.00%    100.00% # Latency to complete the pagewalk
system.gpu.shader_mmu.pagewalkLatency::1            0      0.00%    100.00% # Latency to complete the pagewalk
system.gpu.shader_mmu.pagewalkLatency::2            0      0.00%    100.00% # Latency to complete the pagewalk
system.gpu.shader_mmu.pagewalkLatency::3            0      0.00%    100.00% # Latency to complete the pagewalk
system.gpu.shader_mmu.pagewalkLatency::4            0      0.00%    100.00% # Latency to complete the pagewalk
system.gpu.shader_mmu.pagewalkLatency::5            0      0.00%    100.00% # Latency to complete the pagewalk
system.gpu.shader_mmu.pagewalkLatency::6            0      0.00%    100.00% # Latency to complete the pagewalk
system.gpu.shader_mmu.pagewalkLatency::7            0      0.00%    100.00% # Latency to complete the pagewalk
system.gpu.shader_mmu.pagewalkLatency::8            0      0.00%    100.00% # Latency to complete the pagewalk
system.gpu.shader_mmu.pagewalkLatency::9            0      0.00%    100.00% # Latency to complete the pagewalk
system.gpu.shader_mmu.pagewalkLatency::10            0      0.00%    100.00% # Latency to complete the pagewalk
system.gpu.shader_mmu.pagewalkLatency::11            0      0.00%    100.00% # Latency to complete the pagewalk
system.gpu.shader_mmu.pagewalkLatency::12            0      0.00%    100.00% # Latency to complete the pagewalk
system.gpu.shader_mmu.pagewalkLatency::13            0      0.00%    100.00% # Latency to complete the pagewalk
system.gpu.shader_mmu.pagewalkLatency::14            0      0.00%    100.00% # Latency to complete the pagewalk
system.gpu.shader_mmu.pagewalkLatency::15            0      0.00%    100.00% # Latency to complete the pagewalk
system.gpu.shader_mmu.pagewalkLatency::16            0      0.00%    100.00% # Latency to complete the pagewalk
system.gpu.shader_mmu.pagewalkLatency::17            0      0.00%    100.00% # Latency to complete the pagewalk
system.gpu.shader_mmu.pagewalkLatency::18            0      0.00%    100.00% # Latency to complete the pagewalk
system.gpu.shader_mmu.pagewalkLatency::19            0      0.00%    100.00% # Latency to complete the pagewalk
system.gpu.shader_mmu.pagewalkLatency::20            0      0.00%    100.00% # Latency to complete the pagewalk
system.gpu.shader_mmu.pagewalkLatency::21            0      0.00%    100.00% # Latency to complete the pagewalk
system.gpu.shader_mmu.pagewalkLatency::22            0      0.00%    100.00% # Latency to complete the pagewalk
system.gpu.shader_mmu.pagewalkLatency::23            0      0.00%    100.00% # Latency to complete the pagewalk
system.gpu.shader_mmu.pagewalkLatency::24            0      0.00%    100.00% # Latency to complete the pagewalk
system.gpu.shader_mmu.pagewalkLatency::25            0      0.00%    100.00% # Latency to complete the pagewalk
system.gpu.shader_mmu.pagewalkLatency::26            0      0.00%    100.00% # Latency to complete the pagewalk
system.gpu.shader_mmu.pagewalkLatency::27            0      0.00%    100.00% # Latency to complete the pagewalk
system.gpu.shader_mmu.pagewalkLatency::28            0      0.00%    100.00% # Latency to complete the pagewalk
system.gpu.shader_mmu.pagewalkLatency::29            0      0.00%    100.00% # Latency to complete the pagewalk
system.gpu.shader_mmu.pagewalkLatency::30            0      0.00%    100.00% # Latency to complete the pagewalk
system.gpu.shader_mmu.pagewalkLatency::31            0      0.00%    100.00% # Latency to complete the pagewalk
system.gpu.shader_mmu.pagewalkLatency::total           28                       # Latency to complete the pagewalk
system.gpu.kernels_started                          9                       # Number of kernels started
system.gpu.kernels_completed                        9                       # Number of kernels completed
system.gpu.ce.device_dtb.hits                       0                       # Number of hits in this TLB
system.gpu.ce.device_dtb.misses                     0                       # Number of misses in this TLB
system.gpu.ce.device_dtb.hitRate                  nan                       # Hit rate for this TLB
system.gpu.ce.host_dtb.hits                       402                       # Number of hits in this TLB
system.gpu.ce.host_dtb.misses                      28                       # Number of misses in this TLB
system.gpu.ce.host_dtb.hitRate               0.934884                       # Hit rate for this TLB
system.gpu.shader_cores0.itb.hits                   0                       # Number of hits in this TLB
system.gpu.shader_cores0.itb.misses                 0                       # Number of misses in this TLB
system.gpu.shader_cores0.itb.hitRate              nan                       # Hit rate for this TLB
system.gpu.shader_cores0.local_loads                0                       # Number of loads from local space
system.gpu.shader_cores0.local_stores               0                       # Number of stores to local space
system.gpu.shader_cores0.shared_loads          363422                       # Number of loads from shared space
system.gpu.shader_cores0.shared_stores          28466                       # Number of stores to shared space
system.gpu.shader_cores0.param_kernel_loads       744522                       # Number of loads from kernel parameter space
system.gpu.shader_cores0.param_local_loads            0                       # Number of loads from local parameter space
system.gpu.shader_cores0.param_local_stores            0                       # Number of stores to local parameter space
system.gpu.shader_cores0.const_loads                0                       # Number of loads from constant space
system.gpu.shader_cores0.tex_loads                  0                       # Number of loads from texture space
system.gpu.shader_cores0.global_loads         1829956                       # Number of loads from global space
system.gpu.shader_cores0.global_stores           8587                       # Number of stores to global space
system.gpu.shader_cores0.surf_loads                 0                       # Number of loads from surface space
system.gpu.shader_cores0.generic_loads              0                       # Number of loads from generic spaces (global, shared, local)
system.gpu.shader_cores0.generic_stores             0                       # Number of stores to generic spaces (global, shared, local)
system.gpu.shader_cores0.inst_cache_requests           50                       # Number of instruction cache requests sent
system.gpu.shader_cores0.inst_cache_retries            0                       # Number of instruction cache retries
system.gpu.shader_cores0.inst_counts::0             0                       # Inst counts: 1: ALU, 2: MAD, 3: CTRL, 4: SFU, 5: MEM, 6: TEX, 7: NOP
system.gpu.shader_cores0.inst_counts::1      11391610                       # Inst counts: 1: ALU, 2: MAD, 3: CTRL, 4: SFU, 5: MEM, 6: TEX, 7: NOP
system.gpu.shader_cores0.inst_counts::2       1826553                       # Inst counts: 1: ALU, 2: MAD, 3: CTRL, 4: SFU, 5: MEM, 6: TEX, 7: NOP
system.gpu.shader_cores0.inst_counts::3       1628998                       # Inst counts: 1: ALU, 2: MAD, 3: CTRL, 4: SFU, 5: MEM, 6: TEX, 7: NOP
system.gpu.shader_cores0.inst_counts::4        247872                       # Inst counts: 1: ALU, 2: MAD, 3: CTRL, 4: SFU, 5: MEM, 6: TEX, 7: NOP
system.gpu.shader_cores0.inst_counts::5       2974953                       # Inst counts: 1: ALU, 2: MAD, 3: CTRL, 4: SFU, 5: MEM, 6: TEX, 7: NOP
system.gpu.shader_cores0.inst_counts::6             0                       # Inst counts: 1: ALU, 2: MAD, 3: CTRL, 4: SFU, 5: MEM, 6: TEX, 7: NOP
system.gpu.shader_cores0.inst_counts::7             0                       # Inst counts: 1: ALU, 2: MAD, 3: CTRL, 4: SFU, 5: MEM, 6: TEX, 7: NOP
system.gpu.shader_cores0.activeCycles          601536                       # Number of cycles this shader was executing a CTA
system.gpu.shader_cores0.notStalledCycles       449250                       # Number of cycles this shader was actually executing at least one instance
system.gpu.shader_cores0.instInstances       18069986                       # Total instructions executed by all PEs in the core
system.gpu.shader_cores0.instPerCycle       30.039742                       # Instruction instances per cycle
system.gpu.shader_cores0.kernels_completed            8                       # Number of kernels completed
system.gpu.shader_cores0.lsq.data_tlb.hits            0                       # Number of hits in this TLB
system.gpu.shader_cores0.lsq.data_tlb.misses            0                       # Number of misses in this TLB
system.gpu.shader_cores0.lsq.data_tlb.hitRate          nan                       # Hit rate for this TLB
system.gpu.shader_cores0.lsq.warpInstBufActive::samples  -1203703673                       # Histogram of number of active warp inst buffers at a given time
system.gpu.shader_cores0.lsq.warpInstBufActive::mean    -1.126909                       # Histogram of number of active warp inst buffers at a given time
system.gpu.shader_cores0.lsq.warpInstBufActive::gmean          nan                       # Histogram of number of active warp inst buffers at a given time
system.gpu.shader_cores0.lsq.warpInstBufActive::stdev          nan                       # Histogram of number of active warp inst buffers at a given time
system.gpu.shader_cores0.lsq.warpInstBufActive::0  -1810972942    150.45%    150.45% # Histogram of number of active warp inst buffers at a given time
system.gpu.shader_cores0.lsq.warpInstBufActive::1    323705654    -26.89%    123.56% # Histogram of number of active warp inst buffers at a given time
system.gpu.shader_cores0.lsq.warpInstBufActive::2    190288498    -15.81%    107.75% # Histogram of number of active warp inst buffers at a given time
system.gpu.shader_cores0.lsq.warpInstBufActive::3     65452487     -5.44%    102.31% # Histogram of number of active warp inst buffers at a given time
system.gpu.shader_cores0.lsq.warpInstBufActive::4     14570084     -1.21%    101.10% # Histogram of number of active warp inst buffers at a given time
system.gpu.shader_cores0.lsq.warpInstBufActive::5      2517898     -0.21%    100.89% # Histogram of number of active warp inst buffers at a given time
system.gpu.shader_cores0.lsq.warpInstBufActive::6       550165     -0.05%    100.85% # Histogram of number of active warp inst buffers at a given time
system.gpu.shader_cores0.lsq.warpInstBufActive::7       261507     -0.02%    100.82% # Histogram of number of active warp inst buffers at a given time
system.gpu.shader_cores0.lsq.warpInstBufActive::8       240072     -0.02%    100.80% # Histogram of number of active warp inst buffers at a given time
system.gpu.shader_cores0.lsq.warpInstBufActive::9       165764     -0.01%    100.79% # Histogram of number of active warp inst buffers at a given time
system.gpu.shader_cores0.lsq.warpInstBufActive::10       287229     -0.02%    100.77% # Histogram of number of active warp inst buffers at a given time
system.gpu.shader_cores0.lsq.warpInstBufActive::11       241501     -0.02%    100.75% # Histogram of number of active warp inst buffers at a given time
system.gpu.shader_cores0.lsq.warpInstBufActive::12       208634     -0.02%    100.73% # Histogram of number of active warp inst buffers at a given time
system.gpu.shader_cores0.lsq.warpInstBufActive::13       158619     -0.01%    100.72% # Histogram of number of active warp inst buffers at a given time
system.gpu.shader_cores0.lsq.warpInstBufActive::14       174338     -0.01%    100.70% # Histogram of number of active warp inst buffers at a given time
system.gpu.shader_cores0.lsq.warpInstBufActive::15       217208     -0.02%    100.68% # Histogram of number of active warp inst buffers at a given time
system.gpu.shader_cores0.lsq.warpInstBufActive::16       184341     -0.02%    100.67% # Histogram of number of active warp inst buffers at a given time
system.gpu.shader_cores0.lsq.warpInstBufActive::17       118607     -0.01%    100.66% # Histogram of number of active warp inst buffers at a given time
system.gpu.shader_cores0.lsq.warpInstBufActive::18       138613     -0.01%    100.65% # Histogram of number of active warp inst buffers at a given time
system.gpu.shader_cores0.lsq.warpInstBufActive::19       107175     -0.01%    100.64% # Histogram of number of active warp inst buffers at a given time
system.gpu.shader_cores0.lsq.warpInstBufActive::20        90027     -0.01%    100.63% # Histogram of number of active warp inst buffers at a given time
system.gpu.shader_cores0.lsq.warpInstBufActive::21       194344     -0.02%    100.61% # Histogram of number of active warp inst buffers at a given time
system.gpu.shader_cores0.lsq.warpInstBufActive::22       164335     -0.01%    100.60% # Histogram of number of active warp inst buffers at a given time
system.gpu.shader_cores0.lsq.warpInstBufActive::23       250075     -0.02%    100.58% # Histogram of number of active warp inst buffers at a given time
system.gpu.shader_cores0.lsq.warpInstBufActive::24       172909     -0.01%    100.57% # Histogram of number of active warp inst buffers at a given time
system.gpu.shader_cores0.lsq.warpInstBufActive::25       208634     -0.02%    100.55% # Histogram of number of active warp inst buffers at a given time
system.gpu.shader_cores0.lsq.warpInstBufActive::26       212921     -0.02%    100.53% # Histogram of number of active warp inst buffers at a given time
system.gpu.shader_cores0.lsq.warpInstBufActive::27       164335     -0.01%    100.52% # Histogram of number of active warp inst buffers at a given time
system.gpu.shader_cores0.lsq.warpInstBufActive::28       175767     -0.01%    100.50% # Histogram of number of active warp inst buffers at a given time
system.gpu.shader_cores0.lsq.warpInstBufActive::29       188628     -0.02%    100.49% # Histogram of number of active warp inst buffers at a given time
system.gpu.shader_cores0.lsq.warpInstBufActive::30        91456     -0.01%    100.48% # Histogram of number of active warp inst buffers at a given time
system.gpu.shader_cores0.lsq.warpInstBufActive::31       104317     -0.01%    100.47% # Histogram of number of active warp inst buffers at a given time
system.gpu.shader_cores0.lsq.warpInstBufActive::32        94314     -0.01%    100.46% # Histogram of number of active warp inst buffers at a given time
system.gpu.shader_cores0.lsq.warpInstBufActive::33        70021     -0.01%    100.46% # Histogram of number of active warp inst buffers at a given time
system.gpu.shader_cores0.lsq.warpInstBufActive::34       152903     -0.01%    100.44% # Histogram of number of active warp inst buffers at a given time
system.gpu.shader_cores0.lsq.warpInstBufActive::35       122894     -0.01%    100.43% # Histogram of number of active warp inst buffers at a given time
system.gpu.shader_cores0.lsq.warpInstBufActive::36       131468     -0.01%    100.42% # Histogram of number of active warp inst buffers at a given time
system.gpu.shader_cores0.lsq.warpInstBufActive::37       228640     -0.02%    100.40% # Histogram of number of active warp inst buffers at a given time
system.gpu.shader_cores0.lsq.warpInstBufActive::38       125752     -0.01%    100.39% # Histogram of number of active warp inst buffers at a given time
system.gpu.shader_cores0.lsq.warpInstBufActive::39       107175     -0.01%    100.38% # Histogram of number of active warp inst buffers at a given time
system.gpu.shader_cores0.lsq.warpInstBufActive::40       155761     -0.01%    100.37% # Histogram of number of active warp inst buffers at a given time
system.gpu.shader_cores0.lsq.warpInstBufActive::41       131468     -0.01%    100.36% # Histogram of number of active warp inst buffers at a given time
system.gpu.shader_cores0.lsq.warpInstBufActive::42       128610     -0.01%    100.35% # Histogram of number of active warp inst buffers at a given time
system.gpu.shader_cores0.lsq.warpInstBufActive::43       202918     -0.02%    100.33% # Histogram of number of active warp inst buffers at a given time
system.gpu.shader_cores0.lsq.warpInstBufActive::44       137184     -0.01%    100.32% # Histogram of number of active warp inst buffers at a given time
system.gpu.shader_cores0.lsq.warpInstBufActive::45       138613     -0.01%    100.31% # Histogram of number of active warp inst buffers at a given time
system.gpu.shader_cores0.lsq.warpInstBufActive::46       214350     -0.02%    100.29% # Histogram of number of active warp inst buffers at a given time
system.gpu.shader_cores0.lsq.warpInstBufActive::47       265794     -0.02%    100.27% # Histogram of number of active warp inst buffers at a given time
system.gpu.shader_cores0.lsq.warpInstBufActive::48        60018     -0.00%    100.27% # Histogram of number of active warp inst buffers at a given time
system.gpu.shader_cores0.lsq.warpInstBufActive::49        12861     -0.00%    100.26% # Histogram of number of active warp inst buffers at a given time
system.gpu.shader_cores0.lsq.warpInstBufActive::50        58589     -0.00%    100.26% # Histogram of number of active warp inst buffers at a given time
system.gpu.shader_cores0.lsq.warpInstBufActive::51        15719     -0.00%    100.26% # Histogram of number of active warp inst buffers at a given time
system.gpu.shader_cores0.lsq.warpInstBufActive::52        81453     -0.01%    100.25% # Histogram of number of active warp inst buffers at a given time
system.gpu.shader_cores0.lsq.warpInstBufActive::53        42870     -0.00%    100.25% # Histogram of number of active warp inst buffers at a given time
system.gpu.shader_cores0.lsq.warpInstBufActive::54        21435     -0.00%    100.25% # Histogram of number of active warp inst buffers at a given time
system.gpu.shader_cores0.lsq.warpInstBufActive::55        31438     -0.00%    100.24% # Histogram of number of active warp inst buffers at a given time
system.gpu.shader_cores0.lsq.warpInstBufActive::56        41441     -0.00%    100.24% # Histogram of number of active warp inst buffers at a given time
system.gpu.shader_cores0.lsq.warpInstBufActive::57        30009     -0.00%    100.24% # Histogram of number of active warp inst buffers at a given time
system.gpu.shader_cores0.lsq.warpInstBufActive::58        14290     -0.00%    100.24% # Histogram of number of active warp inst buffers at a given time
system.gpu.shader_cores0.lsq.warpInstBufActive::59        18577     -0.00%    100.23% # Histogram of number of active warp inst buffers at a given time
system.gpu.shader_cores0.lsq.warpInstBufActive::60        15719     -0.00%    100.23% # Histogram of number of active warp inst buffers at a given time
system.gpu.shader_cores0.lsq.warpInstBufActive::61        24293     -0.00%    100.23% # Histogram of number of active warp inst buffers at a given time
system.gpu.shader_cores0.lsq.warpInstBufActive::62       154332     -0.01%    100.22% # Histogram of number of active warp inst buffers at a given time
system.gpu.shader_cores0.lsq.warpInstBufActive::63       238643     -0.02%    100.20% # Histogram of number of active warp inst buffers at a given time
system.gpu.shader_cores0.lsq.warpInstBufActive::64      2393575     -0.20%    100.00% # Histogram of number of active warp inst buffers at a given time
system.gpu.shader_cores0.lsq.warpInstBufActive::total  -1203703673                       # Histogram of number of active warp inst buffers at a given time
system.gpu.shader_cores0.lsq.cacheAccesses     0.053609                       # Average number of concurrent outstanding cache accesses
system.gpu.shader_cores0.lsq.writebackBlockedCycles         7790                       # Number of cycles blocked for core writeback stage
system.gpu.shader_cores0.lsq.mshrHitQueued         1153                       # Number of hits on blocked lines in MSHRs
system.gpu.shader_cores0.lsq.mshrsFullCycles            0                       # Number of cycles stalled waiting for an MSHR
system.gpu.shader_cores0.lsq.mshrsFullCount            0                       # Number of times MSHRs filled
system.gpu.shader_cores0.lsq.warpCoalescedAccesses::samples        59308                       # Number of coalesced accesses per warp instruction
system.gpu.shader_cores0.lsq.warpCoalescedAccesses::mean     1.078708                       # Number of coalesced accesses per warp instruction
system.gpu.shader_cores0.lsq.warpCoalescedAccesses::gmean     1.026845                       # Number of coalesced accesses per warp instruction
system.gpu.shader_cores0.lsq.warpCoalescedAccesses::stdev     0.896921                       # Number of coalesced accesses per warp instruction
system.gpu.shader_cores0.lsq.warpCoalescedAccesses::0            0      0.00%      0.00% # Number of coalesced accesses per warp instruction
system.gpu.shader_cores0.lsq.warpCoalescedAccesses::1        58136     98.02%     98.02% # Number of coalesced accesses per warp instruction
system.gpu.shader_cores0.lsq.warpCoalescedAccesses::2          408      0.69%     98.71% # Number of coalesced accesses per warp instruction
system.gpu.shader_cores0.lsq.warpCoalescedAccesses::3          169      0.28%     99.00% # Number of coalesced accesses per warp instruction
system.gpu.shader_cores0.lsq.warpCoalescedAccesses::4          182      0.31%     99.30% # Number of coalesced accesses per warp instruction
system.gpu.shader_cores0.lsq.warpCoalescedAccesses::5          114      0.19%     99.50% # Number of coalesced accesses per warp instruction
system.gpu.shader_cores0.lsq.warpCoalescedAccesses::6           84      0.14%     99.64% # Number of coalesced accesses per warp instruction
system.gpu.shader_cores0.lsq.warpCoalescedAccesses::7           36      0.06%     99.70% # Number of coalesced accesses per warp instruction
system.gpu.shader_cores0.lsq.warpCoalescedAccesses::8           60      0.10%     99.80% # Number of coalesced accesses per warp instruction
system.gpu.shader_cores0.lsq.warpCoalescedAccesses::9           17      0.03%     99.83% # Number of coalesced accesses per warp instruction
system.gpu.shader_cores0.lsq.warpCoalescedAccesses::10            6      0.01%     99.84% # Number of coalesced accesses per warp instruction
system.gpu.shader_cores0.lsq.warpCoalescedAccesses::11           48      0.08%     99.92% # Number of coalesced accesses per warp instruction
system.gpu.shader_cores0.lsq.warpCoalescedAccesses::12            0      0.00%     99.92% # Number of coalesced accesses per warp instruction
system.gpu.shader_cores0.lsq.warpCoalescedAccesses::13            0      0.00%     99.92% # Number of coalesced accesses per warp instruction
system.gpu.shader_cores0.lsq.warpCoalescedAccesses::14            0      0.00%     99.92% # Number of coalesced accesses per warp instruction
system.gpu.shader_cores0.lsq.warpCoalescedAccesses::15            0      0.00%     99.92% # Number of coalesced accesses per warp instruction
system.gpu.shader_cores0.lsq.warpCoalescedAccesses::16            0      0.00%     99.92% # Number of coalesced accesses per warp instruction
system.gpu.shader_cores0.lsq.warpCoalescedAccesses::17            0      0.00%     99.92% # Number of coalesced accesses per warp instruction
system.gpu.shader_cores0.lsq.warpCoalescedAccesses::18            0      0.00%     99.92% # Number of coalesced accesses per warp instruction
system.gpu.shader_cores0.lsq.warpCoalescedAccesses::19            9      0.02%     99.93% # Number of coalesced accesses per warp instruction
system.gpu.shader_cores0.lsq.warpCoalescedAccesses::20            0      0.00%     99.93% # Number of coalesced accesses per warp instruction
system.gpu.shader_cores0.lsq.warpCoalescedAccesses::21            3      0.01%     99.94% # Number of coalesced accesses per warp instruction
system.gpu.shader_cores0.lsq.warpCoalescedAccesses::22            6      0.01%     99.95% # Number of coalesced accesses per warp instruction
system.gpu.shader_cores0.lsq.warpCoalescedAccesses::23            0      0.00%     99.95% # Number of coalesced accesses per warp instruction
system.gpu.shader_cores0.lsq.warpCoalescedAccesses::24            0      0.00%     99.95% # Number of coalesced accesses per warp instruction
system.gpu.shader_cores0.lsq.warpCoalescedAccesses::25            6      0.01%     99.96% # Number of coalesced accesses per warp instruction
system.gpu.shader_cores0.lsq.warpCoalescedAccesses::26            3      0.01%     99.96% # Number of coalesced accesses per warp instruction
system.gpu.shader_cores0.lsq.warpCoalescedAccesses::27            0      0.00%     99.96% # Number of coalesced accesses per warp instruction
system.gpu.shader_cores0.lsq.warpCoalescedAccesses::28            0      0.00%     99.96% # Number of coalesced accesses per warp instruction
system.gpu.shader_cores0.lsq.warpCoalescedAccesses::29            0      0.00%     99.96% # Number of coalesced accesses per warp instruction
system.gpu.shader_cores0.lsq.warpCoalescedAccesses::30            6      0.01%     99.97% # Number of coalesced accesses per warp instruction
system.gpu.shader_cores0.lsq.warpCoalescedAccesses::31           12      0.02%     99.99% # Number of coalesced accesses per warp instruction
system.gpu.shader_cores0.lsq.warpCoalescedAccesses::32            3      0.01%    100.00% # Number of coalesced accesses per warp instruction
system.gpu.shader_cores0.lsq.warpCoalescedAccesses::total        59308                       # Number of coalesced accesses per warp instruction
system.gpu.shader_cores0.lsq.warpLatencyRead::samples        58406                       # Latency in cycles for whole warp to finish the read
system.gpu.shader_cores0.lsq.warpLatencyRead::mean    11.758004                       # Latency in cycles for whole warp to finish the read
system.gpu.shader_cores0.lsq.warpLatencyRead::gmean    11.389092                       # Latency in cycles for whole warp to finish the read
system.gpu.shader_cores0.lsq.warpLatencyRead::stdev    20.882909                       # Latency in cycles for whole warp to finish the read
system.gpu.shader_cores0.lsq.warpLatencyRead::0-255        58389     99.97%     99.97% # Latency in cycles for whole warp to finish the read
system.gpu.shader_cores0.lsq.warpLatencyRead::256-511           13      0.02%     99.99% # Latency in cycles for whole warp to finish the read
system.gpu.shader_cores0.lsq.warpLatencyRead::512-767            0      0.00%     99.99% # Latency in cycles for whole warp to finish the read
system.gpu.shader_cores0.lsq.warpLatencyRead::768-1023            0      0.00%     99.99% # Latency in cycles for whole warp to finish the read
system.gpu.shader_cores0.lsq.warpLatencyRead::1024-1279            0      0.00%     99.99% # Latency in cycles for whole warp to finish the read
system.gpu.shader_cores0.lsq.warpLatencyRead::1280-1535            0      0.00%     99.99% # Latency in cycles for whole warp to finish the read
system.gpu.shader_cores0.lsq.warpLatencyRead::1536-1791            0      0.00%     99.99% # Latency in cycles for whole warp to finish the read
system.gpu.shader_cores0.lsq.warpLatencyRead::1792-2047            0      0.00%     99.99% # Latency in cycles for whole warp to finish the read
system.gpu.shader_cores0.lsq.warpLatencyRead::2048-2303            0      0.00%     99.99% # Latency in cycles for whole warp to finish the read
system.gpu.shader_cores0.lsq.warpLatencyRead::2304-2559            4      0.01%    100.00% # Latency in cycles for whole warp to finish the read
system.gpu.shader_cores0.lsq.warpLatencyRead::2560-2815            0      0.00%    100.00% # Latency in cycles for whole warp to finish the read
system.gpu.shader_cores0.lsq.warpLatencyRead::2816-3071            0      0.00%    100.00% # Latency in cycles for whole warp to finish the read
system.gpu.shader_cores0.lsq.warpLatencyRead::3072-3327            0      0.00%    100.00% # Latency in cycles for whole warp to finish the read
system.gpu.shader_cores0.lsq.warpLatencyRead::3328-3583            0      0.00%    100.00% # Latency in cycles for whole warp to finish the read
system.gpu.shader_cores0.lsq.warpLatencyRead::3584-3839            0      0.00%    100.00% # Latency in cycles for whole warp to finish the read
system.gpu.shader_cores0.lsq.warpLatencyRead::3840-4095            0      0.00%    100.00% # Latency in cycles for whole warp to finish the read
system.gpu.shader_cores0.lsq.warpLatencyRead::total        58406                       # Latency in cycles for whole warp to finish the read
system.gpu.shader_cores0.lsq.warpLatencyWrite::samples          851                       # Latency in cycles for whole warp to finish the write
system.gpu.shader_cores0.lsq.warpLatencyWrite::mean   214.690952                       # Latency in cycles for whole warp to finish the write
system.gpu.shader_cores0.lsq.warpLatencyWrite::gmean    41.212782                       # Latency in cycles for whole warp to finish the write
system.gpu.shader_cores0.lsq.warpLatencyWrite::stdev   409.911784                       # Latency in cycles for whole warp to finish the write
system.gpu.shader_cores0.lsq.warpLatencyWrite::0-127          650     76.38%     76.38% # Latency in cycles for whole warp to finish the write
system.gpu.shader_cores0.lsq.warpLatencyWrite::128-255           31      3.64%     80.02% # Latency in cycles for whole warp to finish the write
system.gpu.shader_cores0.lsq.warpLatencyWrite::256-383           15      1.76%     81.79% # Latency in cycles for whole warp to finish the write
system.gpu.shader_cores0.lsq.warpLatencyWrite::384-511            9      1.06%     82.84% # Latency in cycles for whole warp to finish the write
system.gpu.shader_cores0.lsq.warpLatencyWrite::512-639           10      1.18%     84.02% # Latency in cycles for whole warp to finish the write
system.gpu.shader_cores0.lsq.warpLatencyWrite::640-767            8      0.94%     84.96% # Latency in cycles for whole warp to finish the write
system.gpu.shader_cores0.lsq.warpLatencyWrite::768-895           28      3.29%     88.25% # Latency in cycles for whole warp to finish the write
system.gpu.shader_cores0.lsq.warpLatencyWrite::896-1023           22      2.59%     90.83% # Latency in cycles for whole warp to finish the write
system.gpu.shader_cores0.lsq.warpLatencyWrite::1024-1151           27      3.17%     94.01% # Latency in cycles for whole warp to finish the write
system.gpu.shader_cores0.lsq.warpLatencyWrite::1152-1279           28      3.29%     97.30% # Latency in cycles for whole warp to finish the write
system.gpu.shader_cores0.lsq.warpLatencyWrite::1280-1407            7      0.82%     98.12% # Latency in cycles for whole warp to finish the write
system.gpu.shader_cores0.lsq.warpLatencyWrite::1408-1535            5      0.59%     98.71% # Latency in cycles for whole warp to finish the write
system.gpu.shader_cores0.lsq.warpLatencyWrite::1536-1663            2      0.24%     98.94% # Latency in cycles for whole warp to finish the write
system.gpu.shader_cores0.lsq.warpLatencyWrite::1664-1791            6      0.71%     99.65% # Latency in cycles for whole warp to finish the write
system.gpu.shader_cores0.lsq.warpLatencyWrite::1792-1919            3      0.35%    100.00% # Latency in cycles for whole warp to finish the write
system.gpu.shader_cores0.lsq.warpLatencyWrite::1920-2047            0      0.00%    100.00% # Latency in cycles for whole warp to finish the write
system.gpu.shader_cores0.lsq.warpLatencyWrite::total          851                       # Latency in cycles for whole warp to finish the write
system.gpu.shader_cores0.lsq.warpLatencyFence::samples          573                       # Latency in cycles for whole warp to finish the fence
system.gpu.shader_cores0.lsq.warpLatencyFence::mean     8.212914                       # Latency in cycles for whole warp to finish the fence
system.gpu.shader_cores0.lsq.warpLatencyFence::gmean     6.400972                       # Latency in cycles for whole warp to finish the fence
system.gpu.shader_cores0.lsq.warpLatencyFence::stdev    20.644003                       # Latency in cycles for whole warp to finish the fence
system.gpu.shader_cores0.lsq.warpLatencyFence::0-31          564     98.43%     98.43% # Latency in cycles for whole warp to finish the fence
system.gpu.shader_cores0.lsq.warpLatencyFence::32-63            5      0.87%     99.30% # Latency in cycles for whole warp to finish the fence
system.gpu.shader_cores0.lsq.warpLatencyFence::64-95            0      0.00%     99.30% # Latency in cycles for whole warp to finish the fence
system.gpu.shader_cores0.lsq.warpLatencyFence::96-127            0      0.00%     99.30% # Latency in cycles for whole warp to finish the fence
system.gpu.shader_cores0.lsq.warpLatencyFence::128-159            0      0.00%     99.30% # Latency in cycles for whole warp to finish the fence
system.gpu.shader_cores0.lsq.warpLatencyFence::160-191            0      0.00%     99.30% # Latency in cycles for whole warp to finish the fence
system.gpu.shader_cores0.lsq.warpLatencyFence::192-223            0      0.00%     99.30% # Latency in cycles for whole warp to finish the fence
system.gpu.shader_cores0.lsq.warpLatencyFence::224-255            2      0.35%     99.65% # Latency in cycles for whole warp to finish the fence
system.gpu.shader_cores0.lsq.warpLatencyFence::256-287            2      0.35%    100.00% # Latency in cycles for whole warp to finish the fence
system.gpu.shader_cores0.lsq.warpLatencyFence::288-319            0      0.00%    100.00% # Latency in cycles for whole warp to finish the fence
system.gpu.shader_cores0.lsq.warpLatencyFence::320-351            0      0.00%    100.00% # Latency in cycles for whole warp to finish the fence
system.gpu.shader_cores0.lsq.warpLatencyFence::352-383            0      0.00%    100.00% # Latency in cycles for whole warp to finish the fence
system.gpu.shader_cores0.lsq.warpLatencyFence::384-415            0      0.00%    100.00% # Latency in cycles for whole warp to finish the fence
system.gpu.shader_cores0.lsq.warpLatencyFence::416-447            0      0.00%    100.00% # Latency in cycles for whole warp to finish the fence
system.gpu.shader_cores0.lsq.warpLatencyFence::448-479            0      0.00%    100.00% # Latency in cycles for whole warp to finish the fence
system.gpu.shader_cores0.lsq.warpLatencyFence::480-511            0      0.00%    100.00% # Latency in cycles for whole warp to finish the fence
system.gpu.shader_cores0.lsq.warpLatencyFence::total          573                       # Latency in cycles for whole warp to finish the fence
system.gpu.shader_cores0.lsq.warpLatencyAtomic::samples           51                       # Latency in cycles for whole warp to finish the atomic
system.gpu.shader_cores0.lsq.warpLatencyAtomic::mean  1472.431373                       # Latency in cycles for whole warp to finish the atomic
system.gpu.shader_cores0.lsq.warpLatencyAtomic::gmean   996.827006                       # Latency in cycles for whole warp to finish the atomic
system.gpu.shader_cores0.lsq.warpLatencyAtomic::stdev   832.903122                       # Latency in cycles for whole warp to finish the atomic
system.gpu.shader_cores0.lsq.warpLatencyAtomic::0-255            6     11.76%     11.76% # Latency in cycles for whole warp to finish the atomic
system.gpu.shader_cores0.lsq.warpLatencyAtomic::256-511            3      5.88%     17.65% # Latency in cycles for whole warp to finish the atomic
system.gpu.shader_cores0.lsq.warpLatencyAtomic::512-767            4      7.84%     25.49% # Latency in cycles for whole warp to finish the atomic
system.gpu.shader_cores0.lsq.warpLatencyAtomic::768-1023            3      5.88%     31.37% # Latency in cycles for whole warp to finish the atomic
system.gpu.shader_cores0.lsq.warpLatencyAtomic::1024-1279            4      7.84%     39.22% # Latency in cycles for whole warp to finish the atomic
system.gpu.shader_cores0.lsq.warpLatencyAtomic::1280-1535            6     11.76%     50.98% # Latency in cycles for whole warp to finish the atomic
system.gpu.shader_cores0.lsq.warpLatencyAtomic::1536-1791            4      7.84%     58.82% # Latency in cycles for whole warp to finish the atomic
system.gpu.shader_cores0.lsq.warpLatencyAtomic::1792-2047            4      7.84%     66.67% # Latency in cycles for whole warp to finish the atomic
system.gpu.shader_cores0.lsq.warpLatencyAtomic::2048-2303            6     11.76%     78.43% # Latency in cycles for whole warp to finish the atomic
system.gpu.shader_cores0.lsq.warpLatencyAtomic::2304-2559            8     15.69%     94.12% # Latency in cycles for whole warp to finish the atomic
system.gpu.shader_cores0.lsq.warpLatencyAtomic::2560-2815            3      5.88%    100.00% # Latency in cycles for whole warp to finish the atomic
system.gpu.shader_cores0.lsq.warpLatencyAtomic::2816-3071            0      0.00%    100.00% # Latency in cycles for whole warp to finish the atomic
system.gpu.shader_cores0.lsq.warpLatencyAtomic::3072-3327            0      0.00%    100.00% # Latency in cycles for whole warp to finish the atomic
system.gpu.shader_cores0.lsq.warpLatencyAtomic::3328-3583            0      0.00%    100.00% # Latency in cycles for whole warp to finish the atomic
system.gpu.shader_cores0.lsq.warpLatencyAtomic::3584-3839            0      0.00%    100.00% # Latency in cycles for whole warp to finish the atomic
system.gpu.shader_cores0.lsq.warpLatencyAtomic::3840-4095            0      0.00%    100.00% # Latency in cycles for whole warp to finish the atomic
system.gpu.shader_cores0.lsq.warpLatencyAtomic::total           51                       # Latency in cycles for whole warp to finish the atomic
system.gpu.shader_cores0.lsq.tlbMissLatency::samples            0                       # Latency in cycles for TLB miss
system.gpu.shader_cores0.lsq.tlbMissLatency::mean          nan                       # Latency in cycles for TLB miss
system.gpu.shader_cores0.lsq.tlbMissLatency::gmean          nan                       # Latency in cycles for TLB miss
system.gpu.shader_cores0.lsq.tlbMissLatency::stdev          nan                       # Latency in cycles for TLB miss
system.gpu.shader_cores0.lsq.tlbMissLatency::0            0                       # Latency in cycles for TLB miss
system.gpu.shader_cores0.lsq.tlbMissLatency::1            0                       # Latency in cycles for TLB miss
system.gpu.shader_cores0.lsq.tlbMissLatency::2            0                       # Latency in cycles for TLB miss
system.gpu.shader_cores0.lsq.tlbMissLatency::3            0                       # Latency in cycles for TLB miss
system.gpu.shader_cores0.lsq.tlbMissLatency::4            0                       # Latency in cycles for TLB miss
system.gpu.shader_cores0.lsq.tlbMissLatency::5            0                       # Latency in cycles for TLB miss
system.gpu.shader_cores0.lsq.tlbMissLatency::6            0                       # Latency in cycles for TLB miss
system.gpu.shader_cores0.lsq.tlbMissLatency::7            0                       # Latency in cycles for TLB miss
system.gpu.shader_cores0.lsq.tlbMissLatency::8            0                       # Latency in cycles for TLB miss
system.gpu.shader_cores0.lsq.tlbMissLatency::9            0                       # Latency in cycles for TLB miss
system.gpu.shader_cores0.lsq.tlbMissLatency::10            0                       # Latency in cycles for TLB miss
system.gpu.shader_cores0.lsq.tlbMissLatency::11            0                       # Latency in cycles for TLB miss
system.gpu.shader_cores0.lsq.tlbMissLatency::12            0                       # Latency in cycles for TLB miss
system.gpu.shader_cores0.lsq.tlbMissLatency::13            0                       # Latency in cycles for TLB miss
system.gpu.shader_cores0.lsq.tlbMissLatency::14            0                       # Latency in cycles for TLB miss
system.gpu.shader_cores0.lsq.tlbMissLatency::15            0                       # Latency in cycles for TLB miss
system.gpu.shader_cores0.lsq.tlbMissLatency::total            0                       # Latency in cycles for TLB miss
system.gpu.shader_cores1.itb.hits                   0                       # Number of hits in this TLB
system.gpu.shader_cores1.itb.misses                 0                       # Number of misses in this TLB
system.gpu.shader_cores1.itb.hitRate              nan                       # Hit rate for this TLB
system.gpu.shader_cores1.local_loads                0                       # Number of loads from local space
system.gpu.shader_cores1.local_stores               0                       # Number of stores to local space
system.gpu.shader_cores1.shared_loads          283840                       # Number of loads from shared space
system.gpu.shader_cores1.shared_stores          27138                       # Number of stores to shared space
system.gpu.shader_cores1.param_kernel_loads       575900                       # Number of loads from kernel parameter space
system.gpu.shader_cores1.param_local_loads            0                       # Number of loads from local parameter space
system.gpu.shader_cores1.param_local_stores            0                       # Number of stores to local parameter space
system.gpu.shader_cores1.const_loads                0                       # Number of loads from constant space
system.gpu.shader_cores1.tex_loads                  0                       # Number of loads from texture space
system.gpu.shader_cores1.global_loads         1407117                       # Number of loads from global space
system.gpu.shader_cores1.global_stores           8543                       # Number of stores to global space
system.gpu.shader_cores1.surf_loads                 0                       # Number of loads from surface space
system.gpu.shader_cores1.generic_loads              0                       # Number of loads from generic spaces (global, shared, local)
system.gpu.shader_cores1.generic_stores             0                       # Number of stores to generic spaces (global, shared, local)
system.gpu.shader_cores1.inst_cache_requests           58                       # Number of instruction cache requests sent
system.gpu.shader_cores1.inst_cache_retries            0                       # Number of instruction cache retries
system.gpu.shader_cores1.inst_counts::0             0                       # Inst counts: 1: ALU, 2: MAD, 3: CTRL, 4: SFU, 5: MEM, 6: TEX, 7: NOP
[...]
system.ruby.L1Cache_Controller.Data_Exclusive |        1244     72.07%     72.07% |          18      1.04%     73.12% |          75      4.35%     77.46% |         160      9.27%     86.73% |          53      3.07%     89.80% |           0      0.00%     89.80% |         176     10.20%    100.00%
system.ruby.L1Cache_Controller.Data_Exclusive::total         1726                      
system.ruby.L1Cache_Controller.DataS_fromL1 |           6      0.45%      0.45% |         164     12.23%     12.68% |         192     14.32%     26.99% |         430     32.07%     59.06% |         307     22.89%     81.95% |           0      0.00%     81.95% |         242     18.05%    100.00%
system.ruby.L1Cache_Controller.DataS_fromL1::total         1341                      
system.ruby.L1Cache_Controller.Data_all_Acks |        1527     11.23%     11.23% |        2294     16.88%     28.11% |        2670     19.64%     47.75% |        3641     26.79%     74.54% |        3065     22.55%     97.09% |           0      0.00%     97.09% |         396      2.91%    100.00%
system.ruby.L1Cache_Controller.Data_all_Acks::total        13593                      
system.ruby.L1Cache_Controller.Ack       |           2      0.19%      0.19% |         136     12.69%     12.87% |          86      8.02%     20.90% |         522     48.69%     69.59% |         277     25.84%     95.43% |           0      0.00%     95.43% |          49      4.57%    100.00%
system.ruby.L1Cache_Controller.Ack::total         1072                      
system.ruby.L1Cache_Controller.Ack_all   |           2      0.26%      0.26% |         107     14.10%     14.36% |          67      8.83%     23.19% |         304     40.05%     63.24% |         246     32.41%     95.65% |           0      0.00%     95.65% |          33      4.35%    100.00%
system.ruby.L1Cache_Controller.Ack_all::total          759                      
system.ruby.L1Cache_Controller.WB_Ack    |        1143     38.76%     38.76% |         256      8.68%     47.44% |         252      8.55%     55.99% |         427     14.48%     70.46% |         293      9.94%     80.40% |           0      0.00%     80.40% |         578     19.60%    100.00%
system.ruby.L1Cache_Controller.WB_Ack::total         2949                      
system.ruby.L1Cache_Controller.NP.Load   |        1235     13.58%     13.58% |        1488     16.36%     29.94% |        1863     20.48%     50.42% |        2326     25.57%     76.00% |        1759     19.34%     95.34% |           0      0.00%     95.34% |         424      4.66%    100.00%
system.ruby.L1Cache_Controller.NP.Load::total         9095                      
system.ruby.L1Cache_Controller.NP.Ifetch |        1091     81.12%     81.12% |          50      3.72%     84.83% |          58      4.31%     89.14% |          76      5.65%     94.80% |          70      5.20%    100.00% |           0      0.00%    100.00% |           0      0.00%    100.00%
system.ruby.L1Cache_Controller.NP.Ifetch::total         1345                      
system.ruby.L1Cache_Controller.NP.Store  |         436     13.39%     13.39% |         456     14.00%     27.39% |         533     16.36%     43.75% |         795     24.41%     68.16% |         614     18.85%     87.01% |           0      0.00%     87.01% |         423     12.99%    100.00%
system.ruby.L1Cache_Controller.NP.Store::total         3257                      
system.ruby.L1Cache_Controller.NP.Inv    |           0      0.00%      0.00% |          36     41.86%     41.86% |          15     17.44%     59.30% |           7      8.14%     67.44% |          27     31.40%     98.84% |           0      0.00%     98.84% |           1      1.16%    100.00%
system.ruby.L1Cache_Controller.NP.Inv::total           86                      
system.ruby.L1Cache_Controller.I.Load    |          15      1.75%      1.75% |         111     12.94%     14.69% |         146     17.02%     31.70% |         337     39.28%     70.98% |         249     29.02%    100.00% |           0      0.00%    100.00% |           0      0.00%    100.00%
system.ruby.L1Cache_Controller.I.Load::total          858                      
system.ruby.L1Cache_Controller.I.Store   |           0      0.00%      0.00% |         378     17.48%     17.48% |         349     16.13%     33.61% |         694     32.09%     65.70% |         742     34.30%    100.00% |           0      0.00%    100.00% |           0      0.00%    100.00%
system.ruby.L1Cache_Controller.I.Store::total         2163                      
system.ruby.L1Cache_Controller.I.L1_Replacement |          16      3.70%      3.70% |          56     12.93%     16.63% |          90     20.79%     37.41% |         139     32.10%     69.52% |         124     28.64%     98.15% |           0      0.00%     98.15% |           8      1.85%    100.00%
system.ruby.L1Cache_Controller.I.L1_Replacement::total          433                      
system.ruby.L1Cache_Controller.S.Load    |          17      0.01%      0.01% |       58686     29.12%     29.13% |       44748     22.20%     51.33% |       41208     20.45%     71.78% |       56884     28.22%    100.00% |           0      0.00%    100.00% |           0      0.00%    100.00%
system.ruby.L1Cache_Controller.S.Load::total       201543                      
system.ruby.L1Cache_Controller.S.Ifetch  |     2358340    100.00%    100.00% |           0      0.00%    100.00% |           0      0.00%    100.00% |           0      0.00%    100.00% |           0      0.00%    100.00% |           0      0.00%    100.00% |           0      0.00%    100.00%
system.ruby.L1Cache_Controller.S.Ifetch::total      2358340                      
system.ruby.L1Cache_Controller.S.Store   |           2      0.29%      0.29% |         100     14.27%     14.55% |          55      7.85%     22.40% |         307     43.79%     66.19% |         237     33.81%    100.00% |           0      0.00%    100.00% |           0      0.00%    100.00%
system.ruby.L1Cache_Controller.S.Store::total          701                      
system.ruby.L1Cache_Controller.S.Inv     |          82      7.85%      7.85% |         178     17.05%     24.90% |         194     18.58%     43.49% |         246     23.56%     67.05% |         335     32.09%     99.14% |           0      0.00%     99.14% |           9      0.86%    100.00%
system.ruby.L1Cache_Controller.S.Inv::total         1044                      
system.ruby.L1Cache_Controller.S.L1_Replacement |         847     10.85%     10.85% |        1306     16.74%     27.59% |        1638     20.99%     48.58% |        2137     27.38%     75.96% |        1623     20.80%     96.76% |           0      0.00%     96.76% |         253      3.24%    100.00%
system.ruby.L1Cache_Controller.S.L1_Replacement::total         7804                      
system.ruby.L1Cache_Controller.E.Load    |      135687     99.30%     99.30% |          52      0.04%     99.34% |         609      0.45%     99.78% |         190      0.14%     99.92% |         109      0.08%    100.00% |           0      0.00%    100.00% |           0      0.00%    100.00%
system.ruby.L1Cache_Controller.E.Load::total       136647                      
system.ruby.L1Cache_Controller.E.Store   |          70     57.85%     57.85% |           0      0.00%     57.85% |           5      4.13%     61.98% |          46     38.02%    100.00% |           0      0.00%    100.00% |           0      0.00%    100.00% |           0      0.00%    100.00%
system.ruby.L1Cache_Controller.E.Store::total          121                      
system.ruby.L1Cache_Controller.E.L1_Replacement |         799     76.39%     76.39% |           2      0.19%     76.58% |          22      2.10%     78.68% |          47      4.49%     83.17% |           0      0.00%     83.17% |           0      0.00%     83.17% |         176     16.83%    100.00%
system.ruby.L1Cache_Controller.E.L1_Replacement::total         1046                      
system.ruby.L1Cache_Controller.E.Fwd_GETX |           7    100.00%    100.00% |           0      0.00%    100.00% |           0      0.00%    100.00% |           0      0.00%    100.00% |           0      0.00%    100.00% |           0      0.00%    100.00% |           0      0.00%    100.00%
system.ruby.L1Cache_Controller.E.Fwd_GETX::total            7                      
system.ruby.L1Cache_Controller.E.Fwd_GETS |           1      0.54%      0.54% |          16      8.65%      9.19% |          48     25.95%     35.14% |          67     36.22%     71.35% |          53     28.65%    100.00% |           0      0.00%    100.00% |           0      0.00%    100.00%
system.ruby.L1Cache_Controller.E.Fwd_GETS::total          185                      
system.ruby.L1Cache_Controller.M.Load    |      169967     96.74%     96.74% |         771      0.44%     97.18% |        1445      0.82%     98.00% |        1894      1.08%     99.08% |        1612      0.92%    100.00% |           0      0.00%    100.00% |           0      0.00%    100.00%
system.ruby.L1Cache_Controller.M.Load::total       175689                      
system.ruby.L1Cache_Controller.M.Store   |      170162     94.60%     94.60% |        1934      1.08%     95.67% |        1998      1.11%     96.78% |        2747      1.53%     98.31% |        3041      1.69%    100.00% |           0      0.00%    100.00% |           0      0.00%    100.00%
system.ruby.L1Cache_Controller.M.Store::total       179882                      
system.ruby.L1Cache_Controller.M.L1_Replacement |         344     18.08%     18.08% |         254     13.35%     31.42% |         230     12.09%     43.51% |         380     19.97%     63.48% |         293     15.40%     78.88% |           0      0.00%     78.88% |         402     21.12%    100.00%
system.ruby.L1Cache_Controller.M.L1_Replacement::total         1903                      
system.ruby.L1Cache_Controller.M.Fwd_GETX |           1      0.03%      0.03% |         507     17.49%     17.52% |         566     19.52%     37.05% |         931     32.11%     69.16% |         894     30.84%    100.00% |           0      0.00%    100.00% |           0      0.00%    100.00%
system.ruby.L1Cache_Controller.M.Fwd_GETX::total         2899                      
system.ruby.L1Cache_Controller.M.Fwd_GETS |          79      6.83%      6.83% |         172     14.88%     21.71% |          56      4.84%     26.56% |         442     38.24%     64.79% |         393     34.00%     98.79% |           0      0.00%     98.79% |          14      1.21%    100.00%
system.ruby.L1Cache_Controller.M.Fwd_GETS::total         1156                      
system.ruby.L1Cache_Controller.IS.L1_Replacement |           0      0.00%      0.00% |           0      0.00%      0.00% |           0      0.00%      0.00% |           3      0.15%      0.15% |           0      0.00%      0.15% |           0      0.00%      0.15% |        2060     99.85%    100.00%
system.ruby.L1Cache_Controller.IS.L1_Replacement::total         2063                      
system.ruby.L1Cache_Controller.IS.Data_Exclusive |        1244     72.07%     72.07% |          18      1.04%     73.12% |          75      4.35%     77.46% |         160      9.27%     86.73% |          53      3.07%     89.80% |           0      0.00%     89.80% |         176     10.20%    100.00%
system.ruby.L1Cache_Controller.IS.Data_Exclusive::total         1726                      
system.ruby.L1Cache_Controller.IS.DataS_fromL1 |           6      0.45%      0.45% |         164     12.23%     12.68% |         192     14.32%     26.99% |         430     32.07%     59.06% |         307     22.89%     81.95% |           0      0.00%     81.95% |         242     18.05%    100.00%
system.ruby.L1Cache_Controller.IS.DataS_fromL1::total         1341                      
system.ruby.L1Cache_Controller.IS.Data_all_Acks |        1091     13.25%     13.25% |        1467     17.82%     31.08% |        1800     21.87%     52.95% |        2149     26.11%     79.05% |        1718     20.87%     99.93% |           0      0.00%     99.93% |           6      0.07%    100.00%
system.ruby.L1Cache_Controller.IS.Data_all_Acks::total         8231                      
system.ruby.L1Cache_Controller.IM.L1_Replacement |           0      0.00%      0.00% |          78      6.11%      6.11% |          65      5.09%     11.20% |          78      6.11%     17.31% |          60      4.70%     22.00% |           0      0.00%     22.00% |         996     78.00%    100.00%
system.ruby.L1Cache_Controller.IM.L1_Replacement::total         1277                      
system.ruby.L1Cache_Controller.IM.Data   |           0      0.00%      0.00% |          10     13.33%     13.33% |          14     18.67%     32.00% |           4      5.33%     37.33% |          14     18.67%     56.00% |           0      0.00%     56.00% |          33     44.00%    100.00%
system.ruby.L1Cache_Controller.IM.Data::total           75                      
system.ruby.L1Cache_Controller.IM.Data_all_Acks |         436      8.13%      8.13% |         827     15.42%     23.55% |         870     16.23%     39.78% |        1492     27.83%     67.61% |        1347     25.12%     92.73% |           0      0.00%     92.73% |         390      7.27%    100.00%
system.ruby.L1Cache_Controller.IM.Data_all_Acks::total         5362                      
system.ruby.L1Cache_Controller.IM.Ack    |           0      0.00%      0.00% |           0      0.00%      0.00% |           0      0.00%      0.00% |           0      0.00%      0.00% |           2      3.92%      3.92% |           0      0.00%      3.92% |          49     96.08%    100.00%
system.ruby.L1Cache_Controller.IM.Ack::total           51                      
system.ruby.L1Cache_Controller.SM.Inv    |           0      0.00%      0.00% |           3     17.65%     17.65% |           2     11.76%     29.41% |           7     41.18%     70.59% |           5     29.41%    100.00% |           0      0.00%    100.00% |           0      0.00%    100.00%
system.ruby.L1Cache_Controller.SM.Inv::total           17                      
system.ruby.L1Cache_Controller.SM.L1_Replacement |           0      0.00%      0.00% |           0      0.00%      0.00% |           0      0.00%      0.00% |           0      0.00%      0.00% |           0      0.00%      0.00% |           0      0.00%      0.00% |           8    100.00%    100.00%
system.ruby.L1Cache_Controller.SM.L1_Replacement::total            8                      
system.ruby.L1Cache_Controller.SM.Ack    |           2      0.20%      0.20% |         136     13.32%     13.52% |          86      8.42%     21.94% |         522     51.13%     73.07% |         275     26.93%    100.00% |           0      0.00%    100.00% |           0      0.00%    100.00%
system.ruby.L1Cache_Controller.SM.Ack::total         1021                      
system.ruby.L1Cache_Controller.SM.Ack_all |           2      0.26%      0.26% |         107     14.10%     14.36% |          67      8.83%     23.19% |         304     40.05%     63.24% |         246     32.41%     95.65% |           0      0.00%     95.65% |          33      4.35%    100.00%
system.ruby.L1Cache_Controller.SM.Ack_all::total          759                      
system.ruby.L1Cache_Controller.M_I.Ifetch |           1    100.00%    100.00% |           0      0.00%    100.00% |           0      0.00%    100.00% |           0      0.00%    100.00% |           0      0.00%    100.00% |           0      0.00%    100.00% |           0      0.00%    100.00%
system.ruby.L1Cache_Controller.M_I.Ifetch::total            1                      
system.ruby.L1Cache_Controller.M_I.Store |           0      0.00%      0.00% |           0      0.00%      0.00% |           0      0.00%      0.00% |           7    100.00%    100.00% |           0      0.00%    100.00% |           0      0.00%    100.00% |           0      0.00%    100.00%
system.ruby.L1Cache_Controller.M_I.Store::total            7                      
system.ruby.L1Cache_Controller.M_I.WB_Ack |        1143     38.76%     38.76% |         256      8.68%     47.44% |         252      8.55%     55.99% |         427     14.48%     70.46% |         293      9.94%     80.40% |           0      0.00%     80.40% |         578     19.60%    100.00%
system.ruby.L1Cache_Controller.M_I.WB_Ack::total         2949                      
system.ruby.L2Cache_Controller.L1_GET_INSTR         1345      0.00%      0.00%
system.ruby.L2Cache_Controller.L1_GETS          10000      0.00%      0.00%
system.ruby.L2Cache_Controller.L1_GETX           6120      0.00%      0.00%
system.ruby.L2Cache_Controller.L1_UPGRADE          705      0.00%      0.00%
system.ruby.L2Cache_Controller.L1_PUTX           2949      0.00%      0.00%
system.ruby.L2Cache_Controller.Mem_Data          2820      0.00%      0.00%
system.ruby.L2Cache_Controller.WB_Data           1156      0.00%      0.00%
system.ruby.L2Cache_Controller.WB_Data_clean          185      0.00%      0.00%
system.ruby.L2Cache_Controller.Unblock           1341      0.00%      0.00%
system.ruby.L2Cache_Controller.Exclusive_Unblock         7847      0.00%      0.00%
system.ruby.L2Cache_Controller.NP.L1_GET_INSTR          637      0.00%      0.00%
system.ruby.L2Cache_Controller.NP.L1_GETS          634      0.00%      0.00%
system.ruby.L2Cache_Controller.NP.L1_GETX         1549      0.00%      0.00%
system.ruby.L2Cache_Controller.SS.L1_GET_INSTR          610      0.00%      0.00%
system.ruby.L2Cache_Controller.SS.L1_GETS         6886      0.00%      0.00%
system.ruby.L2Cache_Controller.SS.L1_GETX          125      0.00%      0.00%
system.ruby.L2Cache_Controller.SS.L1_UPGRADE          684      0.00%      0.00%
system.ruby.L2Cache_Controller.M.L1_GET_INSTR            5      0.00%      0.00%
system.ruby.L2Cache_Controller.M.L1_GETS         1092      0.00%      0.00%
system.ruby.L2Cache_Controller.M.L1_GETX          857      0.00%      0.00%
system.ruby.L2Cache_Controller.MT.L1_GETS         1341      0.00%      0.00%
system.ruby.L2Cache_Controller.MT.L1_GETX         2906      0.00%      0.00%
system.ruby.L2Cache_Controller.MT.L1_PUTX         2949      0.00%      0.00%
system.ruby.L2Cache_Controller.ISS.Mem_Data          634      0.00%      0.00%
system.ruby.L2Cache_Controller.IS.L1_GET_INSTR           93      0.00%      0.00%
system.ruby.L2Cache_Controller.IS.Mem_Data          637      0.00%      0.00%
system.ruby.L2Cache_Controller.IM.L1_GETX            2      0.00%      0.00%
system.ruby.L2Cache_Controller.IM.Mem_Data         1549      0.00%      0.00%
system.ruby.L2Cache_Controller.SS_MB.L1_GETS           11      0.00%      0.00%
system.ruby.L2Cache_Controller.SS_MB.L1_GETX           12      0.00%      0.00%
system.ruby.L2Cache_Controller.SS_MB.L1_UPGRADE           17      0.00%      0.00%
system.ruby.L2Cache_Controller.SS_MB.Exclusive_Unblock          809      0.00%      0.00%
system.ruby.L2Cache_Controller.MT_MB.L1_GETS           10      0.00%      0.00%
system.ruby.L2Cache_Controller.MT_MB.L1_GETX          663      0.00%      0.00%
system.ruby.L2Cache_Controller.MT_MB.Exclusive_Unblock         7038      0.00%      0.00%
system.ruby.L2Cache_Controller.MT_IIB.L1_GETS           26      0.00%      0.00%
system.ruby.L2Cache_Controller.MT_IIB.L1_GETX            6      0.00%      0.00%
system.ruby.L2Cache_Controller.MT_IIB.L1_UPGRADE            3      0.00%      0.00%
system.ruby.L2Cache_Controller.MT_IIB.WB_Data          147      0.00%      0.00%
system.ruby.L2Cache_Controller.MT_IIB.WB_Data_clean           10      0.00%      0.00%
system.ruby.L2Cache_Controller.MT_IIB.Unblock         1184      0.00%      0.00%
system.ruby.L2Cache_Controller.MT_IB.L1_UPGRADE            1      0.00%      0.00%
system.ruby.L2Cache_Controller.MT_IB.WB_Data         1009      0.00%      0.00%
system.ruby.L2Cache_Controller.MT_IB.WB_Data_clean          175      0.00%      0.00%
system.ruby.L2Cache_Controller.MT_SB.Unblock          157      0.00%      0.00%

---------- End Simulation Statistics   ----------
