
---------- Begin Simulation Statistics ----------
sim_seconds                                  0.006743                       # Number of seconds simulated
sim_ticks                                  6743393500                       # Number of ticks simulated
final_tick                                 6743393500                       # Number of ticks from beginning of simulation (restored from checkpoints and never reset)
sim_freq                                 1000000000000                       # Frequency of simulated ticks
host_inst_rate                                  19435                       # Simulator instruction rate (inst/s)
host_op_rate                                    31972                       # Simulator op (including micro ops) rate (op/s)
host_tick_rate                               79222689                       # Simulator tick rate (ticks/s)
host_mem_usage                                2442532                       # Number of bytes of host memory used
host_seconds                                    85.12                       # Real time elapsed on the host
sim_insts                                     1654254                       # Number of instructions simulated
sim_ops                                       2721446                       # Number of ops (including micro ops) simulated
system.voltage_domain.voltage                       1                       # Voltage in Volts
system.clk_domain.clock                          1000                       # Clock period in ticks
system.mem_ctrls.bytes_read::writebacks         45684                       # Number of bytes read from this memory
system.mem_ctrls.bytes_read::gpu.shader_cores0.data      2060192                       # Number of bytes read from this memory
system.mem_ctrls.bytes_read::gpu.shader_cores0.inst         1200                       # Number of bytes read from this memory
system.mem_ctrls.bytes_read::gpu.shader_cores1.data      1678816                       # Number of bytes read from this memory
system.mem_ctrls.bytes_read::gpu.shader_cores1.inst         1392                       # Number of bytes read from this memory
system.mem_ctrls.bytes_read::gpu.shader_cores2.data      1620448                       # Number of bytes read from this memory
system.mem_ctrls.bytes_read::gpu.shader_cores2.inst         1768                       # Number of bytes read from this memory
system.mem_ctrls.bytes_read::gpu.shader_cores3.data      2077952                       # Number of bytes read from this memory
system.mem_ctrls.bytes_read::gpu.shader_cores3.inst         1696                       # Number of bytes read from this memory
system.mem_ctrls.bytes_read::gpu.ce             53252                       # Number of bytes read from this memory
system.mem_ctrls.bytes_read::cpu.inst        18875312                       # Number of bytes read from this memory
system.mem_ctrls.bytes_read::cpu.data         2306986                       # Number of bytes read from this memory
system.mem_ctrls.bytes_read::total           28724698                       # Number of bytes read from this memory
system.mem_ctrls.bytes_inst_read::gpu.shader_cores0.inst         1200                       # Number of instructions bytes read from this memory
system.mem_ctrls.bytes_inst_read::gpu.shader_cores1.inst         1392                       # Number of instructions bytes read from this memory
system.mem_ctrls.bytes_inst_read::gpu.shader_cores2.inst         1768                       # Number of instructions bytes read from this memory
system.mem_ctrls.bytes_inst_read::gpu.shader_cores3.inst         1696                       # Number of instructions bytes read from this memory
system.mem_ctrls.bytes_inst_read::cpu.inst     18875312                       # Number of instructions bytes read from this memory
system.mem_ctrls.bytes_inst_read::total      18881368                       # Number of instructions bytes read from this memory
system.mem_ctrls.bytes_written::writebacks        45684                       # Number of bytes written to this memory
system.mem_ctrls.bytes_written::gpu.shader_cores0.data        34532                       # Number of bytes written to this memory
system.mem_ctrls.bytes_written::gpu.shader_cores1.data        34204                       # Number of bytes written to this memory
system.mem_ctrls.bytes_written::gpu.shader_cores2.data        64236                       # Number of bytes written to this memory
system.mem_ctrls.bytes_written::gpu.shader_cores3.data        36756                       # Number of bytes written to this memory
system.mem_ctrls.bytes_written::gpu.ce          53252                       # Number of bytes written to this memory
system.mem_ctrls.bytes_written::cpu.data      1151820                       # Number of bytes written to this memory
system.mem_ctrls.bytes_written::total         1420484                       # Number of bytes written to this memory
system.mem_ctrls.num_reads::writebacks          11421                       # Number of read requests responded to by this memory
system.mem_ctrls.num_reads::gpu.shader_cores0.data        61082                       # Number of read requests responded to by this memory
system.mem_ctrls.num_reads::gpu.shader_cores0.inst           50                       # Number of read requests responded to by this memory
system.mem_ctrls.num_reads::gpu.shader_cores1.data        48960                       # Number of read requests responded to by this memory
system.mem_ctrls.num_reads::gpu.shader_cores1.inst           58                       # Number of read requests responded to by this memory
system.mem_ctrls.num_reads::gpu.shader_cores2.data        46011                       # Number of read requests responded to by this memory
system.mem_ctrls.num_reads::gpu.shader_cores2.inst           74                       # Number of read requests responded to by this memory
system.mem_ctrls.num_reads::gpu.shader_cores3.data        60469                       # Number of read requests responded to by this memory
system.mem_ctrls.num_reads::gpu.shader_cores3.inst           71                       # Number of read requests responded to by this memory
system.mem_ctrls.num_reads::gpu.ce                424                       # Number of read requests responded to by this memory
system.mem_ctrls.num_reads::cpu.inst          2359414                       # Number of read requests responded to by this memory
system.mem_ctrls.num_reads::cpu.data           312282                       # Number of read requests responded to by this memory
system.mem_ctrls.num_reads::total             2900316                       # Number of read requests responded to by this memory
system.mem_ctrls.num_writes::writebacks         11421                       # Number of write requests responded to by this memory
system.mem_ctrls.num_writes::gpu.shader_cores0.data         2403                       # Number of write requests responded to by this memory
system.mem_ctrls.num_writes::gpu.shader_cores1.data         2392                       # Number of write requests responded to by this memory
system.mem_ctrls.num_writes::gpu.shader_cores2.data         2735                       # Number of write requests responded to by this memory
system.mem_ctrls.num_writes::gpu.shader_cores3.data         2855                       # Number of write requests responded to by this memory
system.mem_ctrls.num_writes::gpu.ce               423                       # Number of write requests responded to by this memory
system.mem_ctrls.num_writes::cpu.data          165305                       # Number of write requests responded to by this memory
system.mem_ctrls.num_writes::total             187534                       # Number of write requests responded to by this memory
system.mem_ctrls.bw_read::writebacks          6774631                       # Total read bandwidth from this memory (bytes/s)
system.mem_ctrls.bw_read::gpu.shader_cores0.data    305512647                       # Total read bandwidth from this memory (bytes/s)
system.mem_ctrls.bw_read::gpu.shader_cores0.inst       177952                       # Total read bandwidth from this memory (bytes/s)
system.mem_ctrls.bw_read::gpu.shader_cores1.data    248957146                       # Total read bandwidth from this memory (bytes/s)
system.mem_ctrls.bw_read::gpu.shader_cores1.inst       206424                       # Total read bandwidth from this memory (bytes/s)
system.mem_ctrls.bw_read::gpu.shader_cores2.data    240301563                       # Total read bandwidth from this memory (bytes/s)
system.mem_ctrls.bw_read::gpu.shader_cores2.inst       262183                       # Total read bandwidth from this memory (bytes/s)
system.mem_ctrls.bw_read::gpu.shader_cores3.data    308146336                       # Total read bandwidth from this memory (bytes/s)
system.mem_ctrls.bw_read::gpu.shader_cores3.inst       251505                       # Total read bandwidth from this memory (bytes/s)
system.mem_ctrls.bw_read::gpu.ce              7896914                       # Total read bandwidth from this memory (bytes/s)
system.mem_ctrls.bw_read::cpu.inst         2799082094                       # Total read bandwidth from this memory (bytes/s)
system.mem_ctrls.bw_read::cpu.data          342110541                       # Total read bandwidth from this memory (bytes/s)
system.mem_ctrls.bw_read::total            4259679937                       # Total read bandwidth from this memory (bytes/s)
system.mem_ctrls.bw_inst_read::gpu.shader_cores0.inst       177952                       # Instruction read bandwidth from this memory (bytes/s)
system.mem_ctrls.bw_inst_read::gpu.shader_cores1.inst       206424                       # Instruction read bandwidth from this memory (bytes/s)
system.mem_ctrls.bw_inst_read::gpu.shader_cores2.inst       262183                       # Instruction read bandwidth from this memory (bytes/s)
system.mem_ctrls.bw_inst_read::gpu.shader_cores3.inst       251505                       # Instruction read bandwidth from this memory (bytes/s)
system.mem_ctrls.bw_inst_read::cpu.inst    2799082094                       # Instruction read bandwidth from this memory (bytes/s)
system.mem_ctrls.bw_inst_read::total       2799980158                       # Instruction read bandwidth from this memory (bytes/s)
system.mem_ctrls.bw_write::writebacks         6774631                       # Write bandwidth from this memory (bytes/s)
system.mem_ctrls.bw_write::gpu.shader_cores0.data      5120864                       # Write bandwidth from this memory (bytes/s)
system.mem_ctrls.bw_write::gpu.shader_cores1.data      5072224                       # Write bandwidth from this memory (bytes/s)
system.mem_ctrls.bw_write::gpu.shader_cores2.data      9525768                       # Write bandwidth from this memory (bytes/s)
system.mem_ctrls.bw_write::gpu.shader_cores3.data      5450668                       # Write bandwidth from this memory (bytes/s)
system.mem_ctrls.bw_write::gpu.ce             7896914                       # Write bandwidth from this memory (bytes/s)
system.mem_ctrls.bw_write::cpu.data         170807176                       # Write bandwidth from this memory (bytes/s)
system.mem_ctrls.bw_write::total            210648244                       # Write bandwidth from this memory (bytes/s)
system.mem_ctrls.bw_total::writebacks        13549261                       # Total bandwidth to/from this memory (bytes/s)
system.mem_ctrls.bw_total::gpu.shader_cores0.data    310633511                       # Total bandwidth to/from this memory (bytes/s)
system.mem_ctrls.bw_total::gpu.shader_cores0.inst       177952                       # Total bandwidth to/from this memory (bytes/s)
system.mem_ctrls.bw_total::gpu.shader_cores1.data    254029370                       # Total bandwidth to/from this memory (bytes/s)
system.mem_ctrls.bw_total::gpu.shader_cores1.inst       206424                       # Total bandwidth to/from this memory (bytes/s)
system.mem_ctrls.bw_total::gpu.shader_cores2.data    249827331                       # Total bandwidth to/from this memory (bytes/s)
system.mem_ctrls.bw_total::gpu.shader_cores2.inst       262183                       # Total bandwidth to/from this memory (bytes/s)
system.mem_ctrls.bw_total::gpu.shader_cores3.data    313597004                       # Total bandwidth to/from this memory (bytes/s)
system.mem_ctrls.bw_total::gpu.shader_cores3.inst       251505                       # Total bandwidth to/from this memory (bytes/s)
system.mem_ctrls.bw_total::gpu.ce            15793828                       # Total bandwidth to/from this memory (bytes/s)
system.mem_ctrls.bw_total::cpu.inst        2799082094                       # Total bandwidth to/from this memory (bytes/s)
system.mem_ctrls.bw_total::cpu.data         512917717                       # Total bandwidth to/from this memory (bytes/s)
system.mem_ctrls.bw_total::total           4470328181                       # Total bandwidth to/from this memory (bytes/s)
system.ruby_clk_domain.clock                      500                       # Clock period in ticks
system.ruby.delayHist::bucket_size               1024                       # delay histogram for all message
system.ruby.delayHist::max_bucket               10239                       # delay histogram for all message
system.ruby.delayHist::samples                  59413                       # delay histogram for all message
system.ruby.delayHist::mean                 60.589315                       # delay histogram for all message
system.ruby.delayHist::stdev               495.380647                       # delay histogram for all message
system.ruby.delayHist                    |       58836     99.03%     99.03% |          28      0.05%     99.08% |          29      0.05%     99.12% |          59      0.10%     99.22% |         203      0.34%     99.57% |         134      0.23%     99.79% |         124      0.21%    100.00% |           0      0.00%    100.00% |           0      0.00%    100.00% |           0      0.00%    100.00% # delay histogram for all message
system.ruby.delayHist::total                    59413                       # delay histogram for all message
system.ruby.outstanding_req_hist::bucket_size            8                      
system.ruby.outstanding_req_hist::max_bucket           79                      
system.ruby.outstanding_req_hist::samples      3069687                      
system.ruby.outstanding_req_hist::mean       1.034522                      
system.ruby.outstanding_req_hist::gmean      1.007784                      
system.ruby.outstanding_req_hist::stdev      0.984820                      
system.ruby.outstanding_req_hist         |     3066040     99.88%     99.88% |        1731      0.06%     99.94% |         702      0.02%     99.96% |         517      0.02%     99.98% |         127      0.00%     99.98% |          53      0.00%     99.98% |          52      0.00%     99.98% |         350      0.01%    100.00% |         115      0.00%    100.00% |           0      0.00%    100.00%
system.ruby.outstanding_req_hist::total       3069687                      
system.ruby.latency_hist::bucket_size            1024                      
system.ruby.latency_hist::max_bucket            10239                      
system.ruby.latency_hist::samples             3069686                      
system.ruby.latency_hist::mean               3.784127                      
system.ruby.latency_hist::gmean              2.816250                      
system.ruby.latency_hist::stdev             42.766511                      
system.ruby.latency_hist                 |     3069053     99.98%     99.98% |         137      0.00%     99.98% |         274      0.01%     99.99% |         178      0.01%    100.00% |          28      0.00%    100.00% |          15      0.00%    100.00% |           1      0.00%    100.00% |           0      0.00%    100.00% |           0      0.00%    100.00% |           0      0.00%    100.00%
system.ruby.latency_hist::total               3069686                      
system.ruby.hit_latency_hist::bucket_size            1                      
system.ruby.hit_latency_hist::max_bucket            9                      
system.ruby.hit_latency_hist::samples         3052682                      
system.ruby.hit_latency_hist::mean           2.856873                      
system.ruby.hit_latency_hist::gmean          2.773172                      
system.ruby.hit_latency_hist::stdev          0.515527                      
system.ruby.hit_latency_hist             |           0      0.00%      0.00% |      218460      7.16%      7.16% |           0      0.00%      7.16% |     2834222     92.84%    100.00% |           0      0.00%    100.00% |           0      0.00%    100.00% |           0      0.00%    100.00% |           0      0.00%    100.00% |           0      0.00%    100.00% |           0      0.00%    100.00%
system.ruby.hit_latency_hist::total           3052682                      
system.ruby.miss_latency_hist::bucket_size         1024                      
system.ruby.miss_latency_hist::max_bucket        10239                      
system.ruby.miss_latency_hist::samples          17004                      
system.ruby.miss_latency_hist::mean        170.251411                      
system.ruby.miss_latency_hist::gmean        44.820732                      
system.ruby.miss_latency_hist::stdev       549.803638                      
system.ruby.miss_latency_hist            |       16371     96.28%     96.28% |         137      0.81%     97.08% |         274      1.61%     98.69% |         178      1.05%     99.74% |          28      0.16%     99.91% |          15      0.09%     99.99% |           1      0.01%    100.00% |           0      0.00%    100.00% |           0      0.00%    100.00% |           0      0.00%    100.00%
system.ruby.miss_latency_hist::total            17004                      
system.ruby.l1_cntrl_ce.L1Dcache.demand_hits            0                       # Number of cache demand hits
system.ruby.l1_cntrl_ce.L1Dcache.demand_misses          847                       # Number of cache demand misses
system.ruby.l1_cntrl_ce.L1Dcache.demand_accesses          847                       # Number of cache demand accesses
system.ruby.l1_cntrl_ce.L1Icache.demand_hits            0                       # Number of cache demand hits
system.ruby.l1_cntrl_ce.L1Icache.demand_misses            0                       # Number of cache demand misses
system.ruby.l1_cntrl_ce.L1Icache.demand_accesses            0                       # Number of cache demand accesses
system.ruby.l1_cntrl_ce.prefetcher.miss_observed            0                       # number of misses observed
system.ruby.l1_cntrl_ce.prefetcher.allocated_streams            0                       # number of streams allocated for prefetching
system.ruby.l1_cntrl_ce.prefetcher.prefetches_requested            0                       # number of prefetch requests made
system.ruby.l1_cntrl_ce.prefetcher.prefetches_accepted            0                       # number of prefetch requests accepted
system.ruby.l1_cntrl_ce.prefetcher.dropped_prefetches            0                       # number of prefetch requests dropped
system.ruby.l1_cntrl_ce.prefetcher.hits             0                       # number of prefetched blocks accessed
system.ruby.l1_cntrl_ce.prefetcher.partial_hits            0                       # number of misses observed for a block being prefetched
system.ruby.l1_cntrl_ce.prefetcher.pages_crossed            0                       # number of prefetches across pages
system.ruby.l1_cntrl_ce.prefetcher.misses_on_prefetched_blocks            0                       # number of misses for blocks that were prefetched, yet missed
system.ruby.l1_cntrl0.L1Dcache.demand_hits       475899                       # Number of cache demand hits
system.ruby.l1_cntrl0.L1Dcache.demand_misses         1688                       # Number of cache demand misses
system.ruby.l1_cntrl0.L1Dcache.demand_accesses       477587                       # Number of cache demand accesses
system.ruby.l1_cntrl0.L1Icache.demand_hits      2358323                       # Number of cache demand hits
system.ruby.l1_cntrl0.L1Icache.demand_misses         1091                       # Number of cache demand misses
system.ruby.l1_cntrl0.L1Icache.demand_accesses      2359414                       # Number of cache demand accesses
system.ruby.l1_cntrl0.prefetcher.miss_observed            0                       # number of misses observed
system.ruby.l1_cntrl0.prefetcher.allocated_streams            0                       # number of streams allocated for prefetching
system.ruby.l1_cntrl0.prefetcher.prefetches_requested            0                       # number of prefetch requests made
system.ruby.l1_cntrl0.prefetcher.prefetches_accepted            0                       # number of prefetch requests accepted
system.ruby.l1_cntrl0.prefetcher.dropped_prefetches            0                       # number of prefetch requests dropped
system.ruby.l1_cntrl0.prefetcher.hits               0                       # number of prefetched blocks accessed
system.ruby.l1_cntrl0.prefetcher.partial_hits            0                       # number of misses observed for a block being prefetched
system.ruby.l1_cntrl0.prefetcher.pages_crossed            0                       # number of prefetches across pages
system.ruby.l1_cntrl0.prefetcher.misses_on_prefetched_blocks            0                       # number of misses for blocks that were prefetched, yet missed
system.ruby.network.routers0.percent_links_utilized     0.115999                      
system.ruby.network.routers0.msg_count.Control::0         2779                      
system.ruby.network.routers0.msg_count.Request_Control::0          170                      
system.ruby.network.routers0.msg_count.Response_Data::1         2945                      
system.ruby.network.routers0.msg_count.Response_Control::1         1229                      
system.ruby.network.routers0.msg_count.Response_Control::2         1688                      
system.ruby.network.routers0.msg_count.Writeback_Data::0          344                      
system.ruby.network.routers0.msg_count.Writeback_Control::0          799                      
system.ruby.network.routers0.msg_bytes.Control::0        22232                      
system.ruby.network.routers0.msg_bytes.Request_Control::0         1360                      
system.ruby.network.routers0.msg_bytes.Response_Data::1       400520                      
system.ruby.network.routers0.msg_bytes.Response_Control::1         9832                      
system.ruby.network.routers0.msg_bytes.Response_Control::2        13504                      
system.ruby.network.routers0.msg_bytes.Writeback_Data::0        46784                      
system.ruby.network.routers0.msg_bytes.Writeback_Control::0         6392                      
system.ruby.l2_cntrl0.L2cache.demand_hits         9931                       # Number of cache demand hits
system.ruby.l2_cntrl0.L2cache.demand_misses         7073                       # Number of cache demand misses
system.ruby.l2_cntrl0.L2cache.demand_accesses        17004                       # Number of cache demand accesses
system.ruby.l2_cntrl0.fully_busy_cycles             2                       # cycles for which number of transistions == max transitions
system.ruby.network.routers1.percent_links_utilized     0.642169                      
system.ruby.network.routers1.msg_count.Control::0        19824                      
system.ruby.network.routers1.msg_count.Request_Control::0         4936                      
system.ruby.network.routers1.msg_count.Response_Data::1        16207                      
system.ruby.network.routers1.msg_count.Response_Control::1         3596                      
system.ruby.network.routers1.msg_count.Response_Control::2         9043                      
system.ruby.network.routers1.msg_count.Writeback_Data::0         1911                      
system.ruby.network.routers1.msg_count.Writeback_Control::0         1027                      
system.ruby.network.routers1.msg_bytes.Control::0       158592                      
system.ruby.network.routers1.msg_bytes.Request_Control::0        39488                      
system.ruby.network.routers1.msg_bytes.Response_Data::1      2204152                      
system.ruby.network.routers1.msg_bytes.Response_Control::1        28768                      
system.ruby.network.routers1.msg_bytes.Response_Control::2        72344                      
system.ruby.network.routers1.msg_bytes.Writeback_Data::0       259896                      
system.ruby.network.routers1.msg_bytes.Writeback_Control::0         8216                      
system.ruby.dir_cntrl0.memBuffer.clk_domain.clock         2500                       # Clock period in ticks
system.ruby.dir_cntrl0.memBuffer.memReq          2820                       # Total number of memory requests
system.ruby.dir_cntrl0.memBuffer.memRead         2820                       # Number of memory reads
system.ruby.dir_cntrl0.memBuffer.memRefresh        13234                       # Number of memory refreshes
system.ruby.dir_cntrl0.memBuffer.memWaitCycles        25219                       # Delay stalled at the head of the bank queue
system.ruby.dir_cntrl0.memBuffer.memInputQ        15618                       # Delay in the input queue
system.ruby.dir_cntrl0.memBuffer.memBankQ        70211                       # Delay behind the head of the bank queue
system.ruby.dir_cntrl0.memBuffer.totalStalls       111048                       # Total number of stall cycles
system.ruby.dir_cntrl0.memBuffer.stallsPerReq    39.378723                       # Expected number of stall cycles per request
system.ruby.dir_cntrl0.memBuffer.memBankBusy         5434                       # memory stalls due to busy bank
system.ruby.dir_cntrl0.memBuffer.memBusBusy         6704                       # memory stalls due to busy bus
system.ruby.dir_cntrl0.memBuffer.memDataBusBusy         2557                       # memory stalls due to read read turnaround
system.ruby.dir_cntrl0.memBuffer.memArbWait         4114                       # memory stalls due to arbitration
system.ruby.dir_cntrl0.memBuffer.memNotOld         6410                       # memory stalls due to anti starvation
system.ruby.dir_cntrl0.memBuffer.memBankCount |         100      3.55%      3.55% |          83      2.94%      6.49% |          90      3.19%      9.68% |          88      3.12%     12.80% |          85      3.01%     15.82% |          87      3.09%     18.90% |          82      2.91%     21.81% |          77      2.73%     24.54% |          75      2.66%     27.20% |          74      2.62%     29.82% |          76      2.70%     32.52% |          86      3.05%     35.57% |          80      2.84%     38.40% |          84      2.98%     41.38% |          96      3.40%     44.79% |         109      3.87%     48.65% |          99      3.51%     52.16% |          88      3.12%     55.28% |          86      3.05%     58.33% |          90      3.19%     61.52% |          91      3.23%     64.75% |          93      3.30%     68.05% |          85      3.01%     71.06% |          83      2.94%     74.01% |          86      3.05%     77.06% |          90      3.19%     80.25% |          91      3.23%     83.48% |          96      3.40%     86.88% |          88      3.12%     90.00% |          94      3.33%     93.33% |          91      3.23%     96.56% |          97      3.44%    100.00% # Number of accesses per bank
system.ruby.dir_cntrl0.memBuffer.memBankCount::total         2820                       # Number of accesses per bank
system.ruby.network.routers2.percent_links_utilized     0.094092                      
system.ruby.network.routers2.msg_count.Control::0         2820                      
system.ruby.network.routers2.msg_count.Response_Data::1         2820                      
system.ruby.network.routers2.msg_bytes.Control::0        22560                      
system.ruby.network.routers2.msg_bytes.Response_Data::1       383520                      
system.ruby.l1_cntrl_sp00.L1Dcache.demand_hits        61611                       # Number of cache demand hits
system.ruby.l1_cntrl_sp00.L1Dcache.demand_misses         2405                       # Number of cache demand misses
system.ruby.l1_cntrl_sp00.L1Dcache.demand_accesses        64016                       # Number of cache demand accesses
system.ruby.l1_cntrl_sp00.L1Icache.demand_hits            0                       # Number of cache demand hits
system.ruby.l1_cntrl_sp00.L1Icache.demand_misses           50                       # Number of cache demand misses
system.ruby.l1_cntrl_sp00.L1Icache.demand_accesses           50                       # Number of cache demand accesses
system.ruby.l1_cntrl_sp00.prefetcher.miss_observed            0                       # number of misses observed
system.ruby.l1_cntrl_sp00.prefetcher.allocated_streams            0                       # number of streams allocated for prefetching
system.ruby.l1_cntrl_sp00.prefetcher.prefetches_requested            0                       # number of prefetch requests made
system.ruby.l1_cntrl_sp00.prefetcher.prefetches_accepted            0                       # number of prefetch requests accepted
system.ruby.l1_cntrl_sp00.prefetcher.dropped_prefetches            0                       # number of prefetch requests dropped
system.ruby.l1_cntrl_sp00.prefetcher.hits            0                       # number of prefetched blocks accessed
system.ruby.l1_cntrl_sp00.prefetcher.partial_hits            0                       # number of misses observed for a block being prefetched
system.ruby.l1_cntrl_sp00.prefetcher.pages_crossed            0                       # number of prefetches across pages
system.ruby.l1_cntrl_sp00.prefetcher.misses_on_prefetched_blocks            0                       # number of misses for blocks that were prefetched, yet missed
system.ruby.network.routers3.percent_links_utilized     0.119105                      
system.ruby.network.routers3.msg_count.Control::0         2455                      
system.ruby.network.routers3.msg_count.Request_Control::0          879                      
system.ruby.network.routers3.msg_count.Response_Data::1         3211                      
system.ruby.network.routers3.msg_count.Response_Control::1          691                      
system.ruby.network.routers3.msg_count.Response_Control::2         1102                      
system.ruby.network.routers3.msg_count.Writeback_Data::0          267                      
system.ruby.network.routers3.msg_count.Writeback_Control::0            1                      
system.ruby.network.routers3.msg_bytes.Control::0        19640                      
system.ruby.network.routers3.msg_bytes.Request_Control::0         7032                      
system.ruby.network.routers3.msg_bytes.Response_Data::1       436696                      
system.ruby.network.routers3.msg_bytes.Response_Control::1         5528                      
system.ruby.network.routers3.msg_bytes.Response_Control::2         8816                      
system.ruby.network.routers3.msg_bytes.Writeback_Data::0        36312                      
system.ruby.network.routers3.msg_bytes.Writeback_Control::0            8                      
system.ruby.l1_cntrl_sp01.L1Dcache.demand_hits        49009                       # Number of cache demand hits
system.ruby.l1_cntrl_sp01.L1Dcache.demand_misses         2874                       # Number of cache demand misses
system.ruby.l1_cntrl_sp01.L1Dcache.demand_accesses        51883                       # Number of cache demand accesses
system.ruby.l1_cntrl_sp01.L1Icache.demand_hits            0                       # Number of cache demand hits
system.ruby.l1_cntrl_sp01.L1Icache.demand_misses           58                       # Number of cache demand misses
system.ruby.l1_cntrl_sp01.L1Icache.demand_accesses           58                       # Number of cache demand accesses
system.ruby.l1_cntrl_sp01.prefetcher.miss_observed            0                       # number of misses observed
system.ruby.l1_cntrl_sp01.prefetcher.allocated_streams            0                       # number of streams allocated for prefetching
system.ruby.l1_cntrl_sp01.prefetcher.prefetches_requested            0                       # number of prefetch requests made
system.ruby.l1_cntrl_sp01.prefetcher.prefetches_accepted            0                       # number of prefetch requests accepted
system.ruby.l1_cntrl_sp01.prefetcher.dropped_prefetches            0                       # number of prefetch requests dropped
system.ruby.l1_cntrl_sp01.prefetcher.hits            0                       # number of prefetched blocks accessed
system.ruby.l1_cntrl_sp01.prefetcher.partial_hits            0                       # number of misses observed for a block being prefetched
system.ruby.l1_cntrl_sp01.prefetcher.pages_crossed            0                       # number of prefetches across pages
system.ruby.l1_cntrl_sp01.prefetcher.misses_on_prefetched_blocks            0                       # number of misses for blocks that were prefetched, yet missed
system.ruby.network.routers4.percent_links_utilized     0.132513                      
system.ruby.network.routers4.msg_count.Control::0         2932                      
system.ruby.network.routers4.msg_count.Request_Control::0          875                      
system.ruby.network.routers4.msg_count.Response_Data::1         3650                      
system.ruby.network.routers4.msg_count.Response_Control::1          611                      
system.ruby.network.routers4.msg_count.Response_Control::2         1171                      
system.ruby.network.routers4.msg_count.Writeback_Data::0          226                      
system.ruby.network.routers4.msg_count.Writeback_Control::0            6                      
system.ruby.network.routers4.msg_bytes.Control::0        23456                      
system.ruby.network.routers4.msg_bytes.Request_Control::0         7000                      
system.ruby.network.routers4.msg_bytes.Response_Data::1       496400                      
system.ruby.network.routers4.msg_bytes.Response_Control::1         4888                      
system.ruby.network.routers4.msg_bytes.Response_Control::2         9368                      
system.ruby.network.routers4.msg_bytes.Writeback_Data::0        30736                      
system.ruby.network.routers4.msg_bytes.Writeback_Control::0           48                      
system.ruby.l1_cntrl_sp02.L1Dcache.demand_hits        46265                       # Number of cache demand hits
system.ruby.l1_cntrl_sp02.L1Dcache.demand_misses         4422                       # Number of cache demand misses
system.ruby.l1_cntrl_sp02.L1Dcache.demand_accesses        50687                       # Number of cache demand accesses
system.ruby.l1_cntrl_sp02.L1Icache.demand_hits            0                       # Number of cache demand hits
system.ruby.l1_cntrl_sp02.L1Icache.demand_misses           74                       # Number of cache demand misses
system.ruby.l1_cntrl_sp02.L1Icache.demand_accesses           74                       # Number of cache demand accesses
system.ruby.l1_cntrl_sp02.prefetcher.miss_observed            0                       # number of misses observed
system.ruby.l1_cntrl_sp02.prefetcher.allocated_streams            0                       # number of streams allocated for prefetching
system.ruby.l1_cntrl_sp02.prefetcher.prefetches_requested            0                       # number of prefetch requests made
system.ruby.l1_cntrl_sp02.prefetcher.prefetches_accepted            0                       # number of prefetch requests accepted
system.ruby.l1_cntrl_sp02.prefetcher.dropped_prefetches            0                       # number of prefetch requests dropped
system.ruby.l1_cntrl_sp02.prefetcher.hits            0                       # number of prefetched blocks accessed
system.ruby.l1_cntrl_sp02.prefetcher.partial_hits            0                       # number of misses observed for a block being prefetched
system.ruby.l1_cntrl_sp02.prefetcher.pages_crossed            0                       # number of prefetches across pages
system.ruby.l1_cntrl_sp02.prefetcher.misses_on_prefetched_blocks            0                       # number of misses for blocks that were prefetched, yet missed
system.ruby.network.routers5.percent_links_utilized     0.224429                      
system.ruby.network.routers5.msg_count.Control::0         4496                      
system.ruby.network.routers5.msg_count.Request_Control::0         1667                      
system.ruby.network.routers5.msg_count.Response_Data::1         6142                      
system.ruby.network.routers5.msg_count.Response_Control::1         1504                      
system.ruby.network.routers5.msg_count.Response_Control::2         2322                      
system.ruby.network.routers5.msg_count.Writeback_Data::0          390                      
system.ruby.network.routers5.msg_count.Writeback_Control::0           40                      
system.ruby.network.routers5.msg_bytes.Control::0        35968                      
system.ruby.network.routers5.msg_bytes.Request_Control::0        13336                      
system.ruby.network.routers5.msg_bytes.Response_Data::1       835312                      
system.ruby.network.routers5.msg_bytes.Response_Control::1        12032                      
system.ruby.network.routers5.msg_bytes.Response_Control::2        18576                      
system.ruby.network.routers5.msg_bytes.Writeback_Data::0        53040                      
system.ruby.network.routers5.msg_bytes.Writeback_Control::0          320                      
system.ruby.l1_cntrl_sp03.L1Dcache.demand_hits        61575                       # Number of cache demand hits
system.ruby.l1_cntrl_sp03.L1Dcache.demand_misses         3424                       # Number of cache demand misses
system.ruby.l1_cntrl_sp03.L1Dcache.demand_accesses        64999                       # Number of cache demand accesses
system.ruby.l1_cntrl_sp03.L1Icache.demand_hits            0                       # Number of cache demand hits
system.ruby.l1_cntrl_sp03.L1Icache.demand_misses           71                       # Number of cache demand misses
system.ruby.l1_cntrl_sp03.L1Icache.demand_accesses           71                       # Number of cache demand accesses
system.ruby.l1_cntrl_sp03.prefetcher.miss_observed            0                       # number of misses observed
system.ruby.l1_cntrl_sp03.prefetcher.allocated_streams            0                       # number of streams allocated for prefetching
system.ruby.l1_cntrl_sp03.prefetcher.prefetches_requested            0                       # number of prefetch requests made
system.ruby.l1_cntrl_sp03.prefetcher.prefetches_accepted            0                       # number of prefetch requests accepted
system.ruby.l1_cntrl_sp03.prefetcher.dropped_prefetches            0                       # number of prefetch requests dropped
system.ruby.l1_cntrl_sp03.prefetcher.hits            0                       # number of prefetched blocks accessed
system.ruby.l1_cntrl_sp03.prefetcher.partial_hits            0                       # number of misses observed for a block being prefetched
system.ruby.l1_cntrl_sp03.prefetcher.pages_crossed            0                       # number of prefetches across pages
system.ruby.l1_cntrl_sp03.prefetcher.misses_on_prefetched_blocks            0                       # number of misses for blocks that were prefetched, yet missed
system.ruby.network.routers6.percent_links_utilized     0.180794                      
system.ruby.network.routers6.msg_count.Control::0         3495                      
system.ruby.network.routers6.msg_count.Request_Control::0         1650                      
system.ruby.network.routers6.msg_count.Response_Data::1         4975                      
system.ruby.network.routers6.msg_count.Response_Control::1         1100                      
system.ruby.network.routers6.msg_count.Response_Control::2         1919                      
system.ruby.network.routers6.msg_count.Writeback_Data::0          282                      
system.ruby.network.routers6.msg_bytes.Control::0        27960                      
system.ruby.network.routers6.msg_bytes.Request_Control::0        13200                      
system.ruby.network.routers6.msg_bytes.Response_Data::1       676600                      
system.ruby.network.routers6.msg_bytes.Response_Control::1         8800                      
system.ruby.network.routers6.msg_bytes.Response_Control::2        15352                      
system.ruby.network.routers6.msg_bytes.Writeback_Data::0        38352                      
system.ruby.l1_pw_cntrl.L1Dcache.demand_hits            0                       # Number of cache demand hits
system.ruby.l1_pw_cntrl.L1Dcache.demand_misses            0                       # Number of cache demand misses
system.ruby.l1_pw_cntrl.L1Dcache.demand_accesses            0                       # Number of cache demand accesses
system.ruby.l1_pw_cntrl.L1Icache.demand_hits            0                       # Number of cache demand hits
system.ruby.l1_pw_cntrl.L1Icache.demand_misses            0                       # Number of cache demand misses
system.ruby.l1_pw_cntrl.L1Icache.demand_accesses            0                       # Number of cache demand accesses
system.ruby.l1_pw_cntrl.prefetcher.miss_observed            0                       # number of misses observed
system.ruby.l1_pw_cntrl.prefetcher.allocated_streams            0                       # number of streams allocated for prefetching
system.ruby.l1_pw_cntrl.prefetcher.prefetches_requested            0                       # number of prefetch requests made
system.ruby.l1_pw_cntrl.prefetcher.prefetches_accepted            0                       # number of prefetch requests accepted
system.ruby.l1_pw_cntrl.prefetcher.dropped_prefetches            0                       # number of prefetch requests dropped
system.ruby.l1_pw_cntrl.prefetcher.hits             0                       # number of prefetched blocks accessed
system.ruby.l1_pw_cntrl.prefetcher.partial_hits            0                       # number of misses observed for a block being prefetched
system.ruby.l1_pw_cntrl.prefetcher.pages_crossed            0                       # number of prefetches across pages
system.ruby.l1_pw_cntrl.prefetcher.misses_on_prefetched_blocks            0                       # number of misses for blocks that were prefetched, yet missed
system.ruby.network.routers7.percent_links_utilized            0                      
system.ruby.network.routers8.percent_links_utilized     0.045001                      
system.ruby.network.routers8.msg_count.Control::0          847                      
system.ruby.network.routers8.msg_count.Request_Control::0           24                      
system.ruby.network.routers8.msg_count.Response_Data::1          875                      
system.ruby.network.routers8.msg_count.Response_Control::1          675                      
system.ruby.network.routers8.msg_count.Response_Control::2          841                      
system.ruby.network.routers8.msg_count.Writeback_Data::0          402                      
system.ruby.network.routers8.msg_count.Writeback_Control::0          181                      
system.ruby.network.routers8.msg_bytes.Control::0         6776                      
system.ruby.network.routers8.msg_bytes.Request_Control::0          192                      
system.ruby.network.routers8.msg_bytes.Response_Data::1       119000                      
system.ruby.network.routers8.msg_bytes.Response_Control::1         5400                      
system.ruby.network.routers8.msg_bytes.Response_Control::2         6728                      
system.ruby.network.routers8.msg_bytes.Writeback_Data::0        54672                      
system.ruby.network.routers8.msg_bytes.Writeback_Control::0         1448                      
system.ruby.network.routers9.percent_links_utilized     0.173078                      
system.ruby.network.routers9.msg_count.Control::0        19824                      
system.ruby.network.routers9.msg_count.Request_Control::0         5265                      
system.ruby.network.routers9.msg_count.Response_Data::1        20460                      
system.ruby.network.routers9.msg_count.Response_Control::1         4703                      
system.ruby.network.routers9.msg_count.Response_Control::2         9043                      
system.ruby.network.routers9.msg_count.Writeback_Data::0         1911                      
system.ruby.network.routers9.msg_count.Writeback_Control::0         1027                      
system.ruby.network.routers9.msg_bytes.Control::0       158592                      
system.ruby.network.routers9.msg_bytes.Request_Control::0        42120                      
system.ruby.network.routers9.msg_bytes.Response_Data::1      2782560                      
system.ruby.network.routers9.msg_bytes.Response_Control::1        37624                      
system.ruby.network.routers9.msg_bytes.Response_Control::2        72344                      
system.ruby.network.routers9.msg_bytes.Writeback_Data::0       259896                      
system.ruby.network.routers9.msg_bytes.Writeback_Control::0         8216                      
system.ruby.network.msg_count.Control           59472                      
system.ruby.network.msg_count.Request_Control        15466                      
system.ruby.network.msg_count.Response_Data        61285                      
system.ruby.network.msg_count.Response_Control        41238                      
system.ruby.network.msg_count.Writeback_Data         5733                      
system.ruby.network.msg_count.Writeback_Control         3081                      
system.ruby.network.msg_byte.Control           475776                      
system.ruby.network.msg_byte.Request_Control       123728                      
system.ruby.network.msg_byte.Response_Data      8334760                      
system.ruby.network.msg_byte.Response_Control       329904                      
system.ruby.network.msg_byte.Writeback_Data       779688                      
system.ruby.network.msg_byte.Writeback_Control        24648                      
system.ruby.memctrl_clk_domain.clock             1500                       # Clock period in ticks
system.cpu_voltage_domain.voltage                   1                       # Voltage in Volts
system.gpu.clk_domain.voltage_domain.voltage            1                       # Voltage in Volts
system.gpu.clk_domain.clock                      1429                       # Clock period in ticks
system.gpu.dram_wrapper.clk_domain.clock          541                       # Clock period in ticks
system.gpu.icnt_wrapper.clk_domain.clock         2858                       # Clock period in ticks
system.gpu.shader_mmu.numPagefaults                 0                       # Number of Pagefaults
system.gpu.shader_mmu.numPagewalks                 28                       # Number of Pagewalks
system.gpu.shader_mmu.totalRequests                28                       # Total number of requests
system.gpu.shader_mmu.retryFailures                 0                       # Times the retry walk after a pagefault failed
system.gpu.shader_mmu.l2hits                        0                       # Hits in the shared L2
system.gpu.shader_mmu.prefetchHits                  0                       # Number of prefetch hits
system.gpu.shader_mmu.numPrefetches                 0                       # Number of prefetchs
system.gpu.shader_mmu.prefetchFaults                0                       # Number of faults caused by prefetches
system.gpu.shader_mmu.pagefaultLatency::samples            0                       # Latency to complete the pagefault
system.gpu.shader_mmu.pagefaultLatency::mean          nan                       # Latency to complete the pagefault
system.gpu.shader_mmu.pagefaultLatency::gmean          nan                       # Latency to complete the pagefault
system.gpu.shader_mmu.pagefaultLatency::stdev          nan                       # Latency to complete the pagefault
system.gpu.shader_mmu.pagefaultLatency::0            0                       # Latency to complete the pagefault
system.gpu.shader_mmu.pagefaultLatency::1            0                       # Latency to complete the pagefault
system.gpu.shader_mmu.pagefaultLatency::2            0                       # Latency to complete the pagefault
system.gpu.shader_mmu.pagefaultLatency::3            0                       # Latency to complete the pagefault
system.gpu.shader_mmu.pagefaultLatency::4            0                       # Latency to complete the pagefault
system.gpu.shader_mmu.pagefaultLatency::5            0                       # Latency to complete the pagefault
system.gpu.shader_mmu.pagefaultLatency::6            0                       # Latency to complete the pagefault
system.gpu.shader_mmu.pagefaultLatency::7            0                       # Latency to complete the pagefault
system.gpu.shader_mmu.pagefaultLatency::8            0                       # Latency to complete the pagefault
system.gpu.shader_mmu.pagefaultLatency::9            0                       # Latency to complete the pagefault
system.gpu.shader_mmu.pagefaultLatency::10            0                       # Latency to complete the pagefault
system.gpu.shader_mmu.pagefaultLatency::11            0                       # Latency to complete the pagefault
system.gpu.shader_mmu.pagefaultLatency::12            0                       # Latency to complete the pagefault
system.gpu.shader_mmu.pagefaultLatency::13            0                       # Latency to complete the pagefault
system.gpu.shader_mmu.pagefaultLatency::14            0                       # Latency to complete the pagefault
system.gpu.shader_mmu.pagefaultLatency::15            0                       # Latency to complete the pagefault
system.gpu.shader_mmu.pagefaultLatency::16            0                       # Latency to complete the pagefault
system.gpu.shader_mmu.pagefaultLatency::17            0                       # Latency to complete the pagefault
system.gpu.shader_mmu.pagefaultLatency::18            0                       # Latency to complete the pagefault
system.gpu.shader_mmu.pagefaultLatency::19            0                       # Latency to complete the pagefault
system.gpu.shader_mmu.pagefaultLatency::20            0                       # Latency to complete the pagefault
system.gpu.shader_mmu.pagefaultLatency::21            0                       # Latency to complete the pagefault
system.gpu.shader_mmu.pagefaultLatency::22            0                       # Latency to complete the pagefault
system.gpu.shader_mmu.pagefaultLatency::23            0                       # Latency to complete the pagefault
system.gpu.shader_mmu.pagefaultLatency::24            0                       # Latency to complete the pagefault
system.gpu.shader_mmu.pagefaultLatency::25            0                       # Latency to complete the pagefault
system.gpu.shader_mmu.pagefaultLatency::26            0                       # Latency to complete the pagefault
system.gpu.shader_mmu.pagefaultLatency::27            0                       # Latency to complete the pagefault
system.gpu.shader_mmu.pagefaultLatency::28            0                       # Latency to complete the pagefault
system.gpu.shader_mmu.pagefaultLatency::29            0                       # Latency to complete the pagefault
system.gpu.shader_mmu.pagefaultLatency::30            0                       # Latency to complete the pagefault
system.gpu.shader_mmu.pagefaultLatency::31            0                       # Latency to complete the pagefault
system.gpu.shader_mmu.pagefaultLatency::total            0                       # Latency to complete the pagefault
system.gpu.shader_mmu.concurrentWalks::samples           28                       # Number of outstanding walks
system.gpu.shader_mmu.concurrentWalks::mean            0                       # Number of outstanding walks
system.gpu.shader_mmu.concurrentWalks::gmean            0                       # Number of outstanding walks
system.gpu.shader_mmu.concurrentWalks::stdev            0                       # Number of outstanding walks
system.gpu.shader_mmu.concurrentWalks::0           28    100.00%    100.00% # Number of outstanding walks
system.gpu.shader_mmu.concurrentWalks::1            0      0.00%    100.00% # Number of outstanding walks
system.gpu.shader_mmu.concurrentWalks::2            0      0.00%    100.00% # Number of outstanding walks
system.gpu.shader_mmu.concurrentWalks::3            0      0.00%    100.00% # Number of outstanding walks
system.gpu.shader_mmu.concurrentWalks::4            0      0.00%    100.00% # Number of outstanding walks
system.gpu.shader_mmu.concurrentWalks::5            0      0.00%    100.00% # Number of outstanding walks
system.gpu.shader_mmu.concurrentWalks::6            0      0.00%    100.00% # Number of outstanding walks
system.gpu.shader_mmu.concurrentWalks::7            0      0.00%    100.00% # Number of outstanding walks
system.gpu.shader_mmu.concurrentWalks::8            0      0.00%    100.00% # Number of outstanding walks
system.gpu.shader_mmu.concurrentWalks::9            0      0.00%    100.00% # Number of outstanding walks
system.gpu.shader_mmu.concurrentWalks::10            0      0.00%    100.00% # Number of outstanding walks
system.gpu.shader_mmu.concurrentWalks::11            0      0.00%    100.00% # Number of outstanding walks
system.gpu.shader_mmu.concurrentWalks::12            0      0.00%    100.00% # Number of outstanding walks
system.gpu.shader_mmu.concurrentWalks::13            0      0.00%    100.00% # Number of outstanding walks
system.gpu.shader_mmu.concurrentWalks::14            0      0.00%    100.00% # Number of outstanding walks
system.gpu.shader_mmu.concurrentWalks::15            0      0.00%    100.00% # Number of outstanding walks
system.gpu.shader_mmu.concurrentWalks::total           28                       # Number of outstanding walks
system.gpu.shader_mmu.pagewalkLatency::samples           28                       # Latency to complete the pagewalk
system.gpu.shader_mmu.pagewalkLatency::mean            0                       # Latency to complete the pagewalk
system.gpu.shader_mmu.pagewalkLatency::gmean            0                       # Latency to complete the pagewalk
system.gpu.shader_mmu.pagewalkLatency::stdev            0                       # Latency to complete the pagewalk
system.gpu.shader_mmu.pagewalkLatency::0           28    100.00%    100.00% # Latency to complete the pagewalk
system.gpu.shader_mmu.pagewalkLatency::1            0      0.00%    100.00% # Latency to complete the pagewalk
system.gpu.shader_mmu.pagewalkLatency::2            0      0.00%    100.00% # Latency to complete the pagewalk
system.gpu.shader_mmu.pagewalkLatency::3            0      0.00%    100.00% # Latency to complete the pagewalk
system.gpu.shader_mmu.pagewalkLatency::4            0      0.00%    100.00% # Latency to complete the pagewalk
system.gpu.shader_mmu.pagewalkLatency::5            0      0.00%    100.00% # Latency to complete the pagewalk
system.gpu.shader_mmu.pagewalkLatency::6            0      0.00%    100.00% # Latency to complete the pagewalk
system.gpu.shader_mmu.pagewalkLatency::7            0      0.00%    100.00% # Latency to complete the pagewalk
system.gpu.shader_mmu.pagewalkLatency::8            0      0.00%    100.00% # Latency to complete the pagewalk
system.gpu.shader_mmu.pagewalkLatency::9            0      0.00%    100.00% # Latency to complete the pagewalk
system.gpu.shader_mmu.pagewalkLatency::10            0      0.00%    100.00% # Latency to complete the pagewalk
system.gpu.shader_mmu.pagewalkLatency::11            0      0.00%    100.00% # Latency to complete the pagewalk
system.gpu.shader_mmu.pagewalkLatency::12            0      0.00%    100.00% # Latency to complete the pagewalk
system.gpu.shader_mmu.pagewalkLatency::13            0      0.00%    100.00% # Latency to complete the pagewalk
system.gpu.shader_mmu.pagewalkLatency::14            0      0.00%    100.00% # Latency to complete the pagewalk
system.gpu.shader_mmu.pagewalkLatency::15            0      0.00%    100.00% # Latency to complete the pagewalk
system.gpu.shader_mmu.pagewalkLatency::16            0      0.00%    100.00% # Latency to complete the pagewalk
system.gpu.shader_mmu.pagewalkLatency::17            0      0.00%    100.00% # Latency to complete the pagewalk
system.gpu.shader_mmu.pagewalkLatency::18            0      0.00%    100.00% # Latency to complete the pagewalk
system.gpu.shader_mmu.pagewalkLatency::19            0      0.00%    100.00% # Latency to complete the pagewalk
system.gpu.shader_mmu.pagewalkLatency::20            0      0.00%    100.00% # Latency to complete the pagewalk
system.gpu.shader_mmu.pagewalkLatency::21            0      0.00%    100.00% # Latency to complete the pagewalk
system.gpu.shader_mmu.pagewalkLatency::22            0      0.00%    100.00% # Latency to complete the pagewalk
system.gpu.shader_mmu.pagewalkLatency::23            0      0.00%    100.00% # Latency to complete the pagewalk
system.gpu.shader_mmu.pagewalkLatency::24            0      0.00%    100.00% # Latency to complete the pagewalk
system.gpu.shader_mmu.pagewalkLatency::25            0      0.00%    100.00% # Latency to complete the pagewalk
system.gpu.shader_mmu.pagewalkLatency::26            0      0.00%    100.00% # Latency to complete the pagewalk
system.gpu.shader_mmu.pagewalkLatency::27            0      0.00%    100.00% # Latency to complete the pagewalk
system.gpu.shader_mmu.pagewalkLatency::28            0      0.00%    100.00% # Latency to complete the pagewalk
system.gpu.shader_mmu.pagewalkLatency::29            0      0.00%    100.00% # Latency to complete the pagewalk
system.gpu.shader_mmu.pagewalkLatency::30            0      0.00%    100.00% # Latency to complete the pagewalk
system.gpu.shader_mmu.pagewalkLatency::31            0      0.00%    100.00% # Latency to complete the pagewalk
system.gpu.shader_mmu.pagewalkLatency::total           28                       # Latency to complete the pagewalk
system.gpu.kernels_started                          9                       # Number of kernels started
system.gpu.kernels_completed                        9                       # Number of kernels completed
system.gpu.shader_cores0.itb.hits                   0                       # Number of hits in this TLB
system.gpu.shader_cores0.itb.misses                 0                       # Number of misses in this TLB
system.gpu.shader_cores0.itb.hitRate              nan                       # Hit rate for this TLB
system.gpu.shader_cores0.local_loads                0                       # Number of loads from local space
system.gpu.shader_cores0.local_stores               0                       # Number of stores to local space
system.gpu.shader_cores0.shared_loads          363392                       # Number of loads from shared space
system.gpu.shader_cores0.shared_stores          28380                       # Number of stores to shared space
system.gpu.shader_cores0.param_kernel_loads       744568                       # Number of loads from kernel parameter space
system.gpu.shader_cores0.param_local_loads            0                       # Number of loads from local parameter space
system.gpu.shader_cores0.param_local_stores            0                       # Number of stores to local parameter space
system.gpu.shader_cores0.const_loads                0                       # Number of loads from constant space
system.gpu.shader_cores0.tex_loads                  0                       # Number of loads from texture space
system.gpu.shader_cores0.global_loads         1833234                       # Number of loads from global space
system.gpu.shader_cores0.global_stores           8633                       # Number of stores to global space
system.gpu.shader_cores0.surf_loads                 0                       # Number of loads from surface space
system.gpu.shader_cores0.generic_loads              0                       # Number of loads from generic spaces (global, shared, local)
system.gpu.shader_cores0.generic_stores             0                       # Number of stores to generic spaces (global, shared, local)
system.gpu.shader_cores0.inst_cache_requests           50                       # Number of instruction cache requests sent
system.gpu.shader_cores0.inst_cache_retries            0                       # Number of instruction cache retries
system.gpu.shader_cores0.inst_counts::0             0                       # Inst counts: 1: ALU, 2: MAD, 3: CTRL, 4: SFU, 5: MEM, 6: TEX, 7: NOP
system.gpu.shader_cores0.inst_counts::1      11404668                       # Inst counts: 1: ALU, 2: MAD, 3: CTRL, 4: SFU, 5: MEM, 6: TEX, 7: NOP
system.gpu.shader_cores0.inst_counts::2       1826475                       # Inst counts: 1: ALU, 2: MAD, 3: CTRL, 4: SFU, 5: MEM, 6: TEX, 7: NOP
system.gpu.shader_cores0.inst_counts::3       1635855                       # Inst counts: 1: ALU, 2: MAD, 3: CTRL, 4: SFU, 5: MEM, 6: TEX, 7: NOP
system.gpu.shader_cores0.inst_counts::4        247872                       # Inst counts: 1: ALU, 2: MAD, 3: CTRL, 4: SFU, 5: MEM, 6: TEX, 7: NOP
system.gpu.shader_cores0.inst_counts::5       2978207                       # Inst counts: 1: ALU, 2: MAD, 3: CTRL, 4: SFU, 5: MEM, 6: TEX, 7: NOP
system.gpu.shader_cores0.inst_counts::6             0                       # Inst counts: 1: ALU, 2: MAD, 3: CTRL, 4: SFU, 5: MEM, 6: TEX, 7: NOP
system.gpu.shader_cores0.inst_counts::7             0                       # Inst counts: 1: ALU, 2: MAD, 3: CTRL, 4: SFU, 5: MEM, 6: TEX, 7: NOP
system.gpu.shader_cores0.activeCycles          596806                       # Number of cycles this shader was executing a CTA
system.gpu.shader_cores0.notStalledCycles       448797                       # Number of cycles this shader was actually executing at least one instance
system.gpu.shader_cores0.instInstances       18093077                       # Total instructions executed by all PEs in the core
system.gpu.shader_cores0.instPerCycle       30.316513                       # Instruction instances per cycle
system.gpu.shader_cores0.kernels_completed            8                       # Number of kernels completed
system.gpu.shader_cores0.lsq.data_tlb.hits            0                       # Number of hits in this TLB
system.gpu.shader_cores0.lsq.data_tlb.misses            0                       # Number of misses in this TLB
system.gpu.shader_cores0.lsq.data_tlb.hitRate          nan                       # Hit rate for this TLB
system.gpu.shader_cores0.lsq.warpInstBufActive::samples  -1203407870                       # Histogram of number of active warp inst buffers at a given time
system.gpu.shader_cores0.lsq.warpInstBufActive::mean    -1.144769                       # Histogram of number of active warp inst buffers at a given time
system.gpu.shader_cores0.lsq.warpInstBufActive::gmean          nan                       # Histogram of number of active warp inst buffers at a given time
system.gpu.shader_cores0.lsq.warpInstBufActive::stdev          nan                       # Histogram of number of active warp inst buffers at a given time
system.gpu.shader_cores0.lsq.warpInstBufActive::0  -1809032360    150.33%    150.33% # Histogram of number of active warp inst buffers at a given time
system.gpu.shader_cores0.lsq.warpInstBufActive::1    320801926    -26.66%    123.67% # Histogram of number of active warp inst buffers at a given time
system.gpu.shader_cores0.lsq.warpInstBufActive::2    191601749    -15.92%    107.75% # Histogram of number of active warp inst buffers at a given time
system.gpu.shader_cores0.lsq.warpInstBufActive::3     65499644     -5.44%    102.30% # Histogram of number of active warp inst buffers at a given time
system.gpu.shader_cores0.lsq.warpInstBufActive::4     14321438     -1.19%    101.11% # Histogram of number of active warp inst buffers at a given time
system.gpu.shader_cores0.lsq.warpInstBufActive::5      2277826     -0.19%    100.92% # Histogram of number of active warp inst buffers at a given time
system.gpu.shader_cores0.lsq.warpInstBufActive::6       588748     -0.05%    100.88% # Histogram of number of active warp inst buffers at a given time
system.gpu.shader_cores0.lsq.warpInstBufActive::7       272939     -0.02%    100.85% # Histogram of number of active warp inst buffers at a given time
system.gpu.shader_cores0.lsq.warpInstBufActive::8       208634     -0.02%    100.84% # Histogram of number of active warp inst buffers at a given time
system.gpu.shader_cores0.lsq.warpInstBufActive::9        98601     -0.01%    100.83% # Histogram of number of active warp inst buffers at a given time
system.gpu.shader_cores0.lsq.warpInstBufActive::10       131468     -0.01%    100.82% # Histogram of number of active warp inst buffers at a given time
system.gpu.shader_cores0.lsq.warpInstBufActive::11       202918     -0.02%    100.80% # Histogram of number of active warp inst buffers at a given time
system.gpu.shader_cores0.lsq.warpInstBufActive::12       395833     -0.03%    100.77% # Histogram of number of active warp inst buffers at a given time
system.gpu.shader_cores0.lsq.warpInstBufActive::13       228640     -0.02%    100.75% # Histogram of number of active warp inst buffers at a given time
system.gpu.shader_cores0.lsq.warpInstBufActive::14       170051     -0.01%    100.73% # Histogram of number of active warp inst buffers at a given time
system.gpu.shader_cores0.lsq.warpInstBufActive::15       171480     -0.01%    100.72% # Histogram of number of active warp inst buffers at a given time
system.gpu.shader_cores0.lsq.warpInstBufActive::16        75737     -0.01%    100.71% # Histogram of number of active warp inst buffers at a given time
system.gpu.shader_cores0.lsq.warpInstBufActive::17       111462     -0.01%    100.70% # Histogram of number of active warp inst buffers at a given time
system.gpu.shader_cores0.lsq.warpInstBufActive::18       151474     -0.01%    100.69% # Histogram of number of active warp inst buffers at a given time
system.gpu.shader_cores0.lsq.warpInstBufActive::19       191486     -0.02%    100.67% # Histogram of number of active warp inst buffers at a given time
system.gpu.shader_cores0.lsq.warpInstBufActive::20       160048     -0.01%    100.66% # Histogram of number of active warp inst buffers at a given time
system.gpu.shader_cores0.lsq.warpInstBufActive::21       134326     -0.01%    100.65% # Histogram of number of active warp inst buffers at a given time
system.gpu.shader_cores0.lsq.warpInstBufActive::22       121465     -0.01%    100.64% # Histogram of number of active warp inst buffers at a given time
system.gpu.shader_cores0.lsq.warpInstBufActive::23       152903     -0.01%    100.63% # Histogram of number of active warp inst buffers at a given time
system.gpu.shader_cores0.lsq.warpInstBufActive::24       202918     -0.02%    100.61% # Histogram of number of active warp inst buffers at a given time
system.gpu.shader_cores0.lsq.warpInstBufActive::25       127181     -0.01%    100.60% # Histogram of number of active warp inst buffers at a given time
system.gpu.shader_cores0.lsq.warpInstBufActive::26       251504     -0.02%    100.58% # Histogram of number of active warp inst buffers at a given time
system.gpu.shader_cores0.lsq.warpInstBufActive::27        97172     -0.01%    100.57% # Histogram of number of active warp inst buffers at a given time
system.gpu.shader_cores0.lsq.warpInstBufActive::28       138613     -0.01%    100.56% # Histogram of number of active warp inst buffers at a given time
system.gpu.shader_cores0.lsq.warpInstBufActive::29       180054     -0.01%    100.54% # Histogram of number of active warp inst buffers at a given time
system.gpu.shader_cores0.lsq.warpInstBufActive::30       164335     -0.01%    100.53% # Histogram of number of active warp inst buffers at a given time
system.gpu.shader_cores0.lsq.warpInstBufActive::31       202918     -0.02%    100.51% # Histogram of number of active warp inst buffers at a given time
system.gpu.shader_cores0.lsq.warpInstBufActive::32       172909     -0.01%    100.50% # Histogram of number of active warp inst buffers at a given time
system.gpu.shader_cores0.lsq.warpInstBufActive::33       145758     -0.01%    100.49% # Histogram of number of active warp inst buffers at a given time
system.gpu.shader_cores0.lsq.warpInstBufActive::34       187199     -0.02%    100.47% # Histogram of number of active warp inst buffers at a given time
system.gpu.shader_cores0.lsq.warpInstBufActive::35       114320     -0.01%    100.46% # Histogram of number of active warp inst buffers at a given time
system.gpu.shader_cores0.lsq.warpInstBufActive::36       108604     -0.01%    100.45% # Histogram of number of active warp inst buffers at a given time
system.gpu.shader_cores0.lsq.warpInstBufActive::37       154332     -0.01%    100.44% # Histogram of number of active warp inst buffers at a given time
system.gpu.shader_cores0.lsq.warpInstBufActive::38       175767     -0.01%    100.43% # Histogram of number of active warp inst buffers at a given time
system.gpu.shader_cores0.lsq.warpInstBufActive::39       144329     -0.01%    100.41% # Histogram of number of active warp inst buffers at a given time
system.gpu.shader_cores0.lsq.warpInstBufActive::40       152903     -0.01%    100.40% # Histogram of number of active warp inst buffers at a given time
system.gpu.shader_cores0.lsq.warpInstBufActive::41       131468     -0.01%    100.39% # Histogram of number of active warp inst buffers at a given time
system.gpu.shader_cores0.lsq.warpInstBufActive::42       127181     -0.01%    100.38% # Histogram of number of active warp inst buffers at a given time
system.gpu.shader_cores0.lsq.warpInstBufActive::43       150045     -0.01%    100.37% # Histogram of number of active warp inst buffers at a given time
system.gpu.shader_cores0.lsq.warpInstBufActive::44       132897     -0.01%    100.36% # Histogram of number of active warp inst buffers at a given time
system.gpu.shader_cores0.lsq.warpInstBufActive::45       130039     -0.01%    100.35% # Histogram of number of active warp inst buffers at a given time
system.gpu.shader_cores0.lsq.warpInstBufActive::46       168622     -0.01%    100.33% # Histogram of number of active warp inst buffers at a given time
system.gpu.shader_cores0.lsq.warpInstBufActive::47       114320     -0.01%    100.32% # Histogram of number of active warp inst buffers at a given time
system.gpu.shader_cores0.lsq.warpInstBufActive::48       178625     -0.01%    100.31% # Histogram of number of active warp inst buffers at a given time
system.gpu.shader_cores0.lsq.warpInstBufActive::49       140042     -0.01%    100.30% # Histogram of number of active warp inst buffers at a given time
system.gpu.shader_cores0.lsq.warpInstBufActive::50       154332     -0.01%    100.28% # Histogram of number of active warp inst buffers at a given time
system.gpu.shader_cores0.lsq.warpInstBufActive::51       305806     -0.03%    100.26% # Histogram of number of active warp inst buffers at a given time
system.gpu.shader_cores0.lsq.warpInstBufActive::52       117178     -0.01%    100.25% # Histogram of number of active warp inst buffers at a given time
system.gpu.shader_cores0.lsq.warpInstBufActive::53        44299     -0.00%    100.24% # Histogram of number of active warp inst buffers at a given time
system.gpu.shader_cores0.lsq.warpInstBufActive::54         7145     -0.00%    100.24% # Histogram of number of active warp inst buffers at a given time
system.gpu.shader_cores0.lsq.warpInstBufActive::55        10003     -0.00%    100.24% # Histogram of number of active warp inst buffers at a given time
system.gpu.shader_cores0.lsq.warpInstBufActive::56        10003     -0.00%    100.24% # Histogram of number of active warp inst buffers at a given time
system.gpu.shader_cores0.lsq.warpInstBufActive::57        51444     -0.00%    100.24% # Histogram of number of active warp inst buffers at a given time
system.gpu.shader_cores0.lsq.warpInstBufActive::58         8574     -0.00%    100.24% # Histogram of number of active warp inst buffers at a given time
system.gpu.shader_cores0.lsq.warpInstBufActive::59        15719     -0.00%    100.24% # Histogram of number of active warp inst buffers at a given time
system.gpu.shader_cores0.lsq.warpInstBufActive::60        10003     -0.00%    100.23% # Histogram of number of active warp inst buffers at a given time
system.gpu.shader_cores0.lsq.warpInstBufActive::61        11432     -0.00%    100.23% # Histogram of number of active warp inst buffers at a given time
system.gpu.shader_cores0.lsq.warpInstBufActive::62         8574     -0.00%    100.23% # Histogram of number of active warp inst buffers at a given time
system.gpu.shader_cores0.lsq.warpInstBufActive::63       160048     -0.01%    100.22% # Histogram of number of active warp inst buffers at a given time
system.gpu.shader_cores0.lsq.warpInstBufActive::64      2645079     -0.22%    100.00% # Histogram of number of active warp inst buffers at a given time
system.gpu.shader_cores0.lsq.warpInstBufActive::total  -1203407870                       # Histogram of number of active warp inst buffers at a given time
system.gpu.shader_cores0.lsq.cacheAccesses     0.052823                       # Average number of concurrent outstanding cache accesses
system.gpu.shader_cores0.lsq.writebackBlockedCycles         7861                       # Number of cycles blocked for core writeback stage
system.gpu.shader_cores0.lsq.mshrHitQueued         1167                       # Number of hits on blocked lines in MSHRs
system.gpu.shader_cores0.lsq.mshrsFullCycles            0                       # Number of cycles stalled waiting for an MSHR
system.gpu.shader_cores0.lsq.mshrsFullCount            0                       # Number of times MSHRs filled
system.gpu.shader_cores0.lsq.warpCoalescedAccesses::samples        59285                       # Number of coalesced accesses per warp instruction
system.gpu.shader_cores0.lsq.warpCoalescedAccesses::mean     1.079801                       # Number of coalesced accesses per warp instruction
system.gpu.shader_cores0.lsq.warpCoalescedAccesses::gmean     1.026617                       # Number of coalesced accesses per warp instruction
system.gpu.shader_cores0.lsq.warpCoalescedAccesses::stdev     0.904761                       # Number of coalesced accesses per warp instruction
system.gpu.shader_cores0.lsq.warpCoalescedAccesses::0            0      0.00%      0.00% # Number of coalesced accesses per warp instruction
system.gpu.shader_cores0.lsq.warpCoalescedAccesses::1        58188     98.15%     98.15% # Number of coalesced accesses per warp instruction
system.gpu.shader_cores0.lsq.warpCoalescedAccesses::2          270      0.46%     98.61% # Number of coalesced accesses per warp instruction
system.gpu.shader_cores0.lsq.warpCoalescedAccesses::3          248      0.42%     99.02% # Number of coalesced accesses per warp instruction
system.gpu.shader_cores0.lsq.warpCoalescedAccesses::4          134      0.23%     99.25% # Number of coalesced accesses per warp instruction
system.gpu.shader_cores0.lsq.warpCoalescedAccesses::5          112      0.19%     99.44% # Number of coalesced accesses per warp instruction
system.gpu.shader_cores0.lsq.warpCoalescedAccesses::6           89      0.15%     99.59% # Number of coalesced accesses per warp instruction
system.gpu.shader_cores0.lsq.warpCoalescedAccesses::7           69      0.12%     99.70% # Number of coalesced accesses per warp instruction
system.gpu.shader_cores0.lsq.warpCoalescedAccesses::8           55      0.09%     99.80% # Number of coalesced accesses per warp instruction
system.gpu.shader_cores0.lsq.warpCoalescedAccesses::9           19      0.03%     99.83% # Number of coalesced accesses per warp instruction
system.gpu.shader_cores0.lsq.warpCoalescedAccesses::10            5      0.01%     99.84% # Number of coalesced accesses per warp instruction
system.gpu.shader_cores0.lsq.warpCoalescedAccesses::11           48      0.08%     99.92% # Number of coalesced accesses per warp instruction
system.gpu.shader_cores0.lsq.warpCoalescedAccesses::12            0      0.00%     99.92% # Number of coalesced accesses per warp instruction
system.gpu.shader_cores0.lsq.warpCoalescedAccesses::13            0      0.00%     99.92% # Number of coalesced accesses per warp instruction
system.gpu.shader_cores0.lsq.warpCoalescedAccesses::14            0      0.00%     99.92% # Number of coalesced accesses per warp instruction
system.gpu.shader_cores0.lsq.warpCoalescedAccesses::15            0      0.00%     99.92% # Number of coalesced accesses per warp instruction
system.gpu.shader_cores0.lsq.warpCoalescedAccesses::16            0      0.00%     99.92% # Number of coalesced accesses per warp instruction
system.gpu.shader_cores0.lsq.warpCoalescedAccesses::17            0      0.00%     99.92% # Number of coalesced accesses per warp instruction
system.gpu.shader_cores0.lsq.warpCoalescedAccesses::18            0      0.00%     99.92% # Number of coalesced accesses per warp instruction
system.gpu.shader_cores0.lsq.warpCoalescedAccesses::19            9      0.02%     99.93% # Number of coalesced accesses per warp instruction
system.gpu.shader_cores0.lsq.warpCoalescedAccesses::20            0      0.00%     99.93% # Number of coalesced accesses per warp instruction
system.gpu.shader_cores0.lsq.warpCoalescedAccesses::21            3      0.01%     99.94% # Number of coalesced accesses per warp instruction
system.gpu.shader_cores0.lsq.warpCoalescedAccesses::22            6      0.01%     99.95% # Number of coalesced accesses per warp instruction
system.gpu.shader_cores0.lsq.warpCoalescedAccesses::23            0      0.00%     99.95% # Number of coalesced accesses per warp instruction
system.gpu.shader_cores0.lsq.warpCoalescedAccesses::24            0      0.00%     99.95% # Number of coalesced accesses per warp instruction
system.gpu.shader_cores0.lsq.warpCoalescedAccesses::25            6      0.01%     99.96% # Number of coalesced accesses per warp instruction
system.gpu.shader_cores0.lsq.warpCoalescedAccesses::26            3      0.01%     99.96% # Number of coalesced accesses per warp instruction
system.gpu.shader_cores0.lsq.warpCoalescedAccesses::27            0      0.00%     99.96% # Number of coalesced accesses per warp instruction
system.gpu.shader_cores0.lsq.warpCoalescedAccesses::28            0      0.00%     99.96% # Number of coalesced accesses per warp instruction
system.gpu.shader_cores0.lsq.warpCoalescedAccesses::29            0      0.00%     99.96% # Number of coalesced accesses per warp instruction
system.gpu.shader_cores0.lsq.warpCoalescedAccesses::30            6      0.01%     99.97% # Number of coalesced accesses per warp instruction
system.gpu.shader_cores0.lsq.warpCoalescedAccesses::31           12      0.02%     99.99% # Number of coalesced accesses per warp instruction
system.gpu.shader_cores0.lsq.warpCoalescedAccesses::32            3      0.01%    100.00% # Number of coalesced accesses per warp instruction
[...]
system.ruby.L1Cache_Controller.WB_Ack::total         2938                      
system.ruby.L1Cache_Controller.NP.Load   |        1235     14.04%     14.04% |        1369     15.56%     29.60% |        1794     20.39%     49.99% |        2339     26.59%     76.57% |        1637     18.61%     95.18% |           0      0.00%     95.18% |         424      4.82%    100.00%
system.ruby.L1Cache_Controller.NP.Load::total         8798                      
system.ruby.L1Cache_Controller.NP.Ifetch |        1091     81.18%     81.18% |          50      3.72%     84.90% |          58      4.32%     89.21% |          74      5.51%     94.72% |          71      5.28%    100.00% |           0      0.00%    100.00% |           0      0.00%    100.00%
system.ruby.L1Cache_Controller.NP.Ifetch::total         1344                      
system.ruby.L1Cache_Controller.NP.Store  |         436     13.30%     13.30% |         470     14.33%     27.63% |         540     16.47%     44.10% |         791     24.12%     68.22% |         619     18.88%     87.10% |           0      0.00%     87.10% |         423     12.90%    100.00%
system.ruby.L1Cache_Controller.NP.Store::total         3279                      
system.ruby.L1Cache_Controller.NP.Inv    |           0      0.00%      0.00% |          37     46.84%     46.84% |          15     18.99%     65.82% |           5      6.33%     72.15% |          21     26.58%     98.73% |           0      0.00%     98.73% |           1      1.27%    100.00%
system.ruby.L1Cache_Controller.NP.Inv::total           79                      
system.ruby.L1Cache_Controller.I.Load    |          15      1.83%      1.83% |          97     11.83%     13.66% |         139     16.95%     30.61% |         300     36.59%     67.20% |         269     32.80%    100.00% |           0      0.00%    100.00% |           0      0.00%    100.00%
system.ruby.L1Cache_Controller.I.Load::total          820                      
system.ruby.L1Cache_Controller.I.Store   |           0      0.00%      0.00% |         373     17.93%     17.93% |         339     16.30%     34.23% |         683     32.84%     67.07% |         685     32.93%    100.00% |           0      0.00%    100.00% |           0      0.00%    100.00%
system.ruby.L1Cache_Controller.I.Store::total         2080                      
system.ruby.L1Cache_Controller.I.L1_Replacement |          16      3.43%      3.43% |          52     11.13%     14.56% |          97     20.77%     35.33% |         140     29.98%     65.31% |         154     32.98%     98.29% |           0      0.00%     98.29% |           8      1.71%    100.00%
system.ruby.L1Cache_Controller.I.L1_Replacement::total          467                      
system.ruby.L1Cache_Controller.S.Load    |          17      0.01%      0.01% |       58831     29.12%     29.13% |       45246     22.40%     51.53% |       41186     20.39%     71.91% |       56743     28.09%    100.00% |           0      0.00%    100.00% |           0      0.00%    100.00%
system.ruby.L1Cache_Controller.S.Load::total       202023                      
system.ruby.L1Cache_Controller.S.Ifetch  |     2358323    100.00%    100.00% |           0      0.00%    100.00% |           0      0.00%    100.00% |           0      0.00%    100.00% |           0      0.00%    100.00% |           0      0.00%    100.00% |           0      0.00%    100.00%
system.ruby.L1Cache_Controller.S.Ifetch::total      2358323                      
system.ruby.L1Cache_Controller.S.Store   |           2      0.29%      0.29% |          96     14.06%     14.35% |          62      9.08%     23.43% |         309     45.24%     68.67% |         214     31.33%    100.00% |           0      0.00%    100.00% |           0      0.00%    100.00%
system.ruby.L1Cache_Controller.S.Store::total          683                      
system.ruby.L1Cache_Controller.S.Inv     |          82      8.18%      8.18% |         159     15.87%     24.05% |         190     18.96%     43.01% |         230     22.95%     65.97% |         332     33.13%     99.10% |           0      0.00%     99.10% |           9      0.90%    100.00%
system.ruby.L1Cache_Controller.S.Inv::total         1002                      
system.ruby.L1Cache_Controller.S.L1_Replacement |         847     11.28%     11.28% |        1193     15.89%     27.17% |        1589     21.17%     48.34% |        2143     28.55%     76.89% |        1487     19.81%     96.70% |           0      0.00%     96.70% |         248      3.30%    100.00%
system.ruby.L1Cache_Controller.S.L1_Replacement::total         7507                      
system.ruby.L1Cache_Controller.E.Load    |      135687     99.47%     99.47% |          40      0.03%     99.50% |         367      0.27%     99.77% |         161      0.12%     99.89% |         150      0.11%    100.00% |           0      0.00%    100.00% |           0      0.00%    100.00%
system.ruby.L1Cache_Controller.E.Load::total       136405                      
system.ruby.L1Cache_Controller.E.Store   |          70     54.69%     54.69% |           0      0.00%     54.69% |           3      2.34%     57.03% |          54     42.19%     99.22% |           1      0.78%    100.00% |           0      0.00%    100.00% |           0      0.00%    100.00%
system.ruby.L1Cache_Controller.E.Store::total          128                      
system.ruby.L1Cache_Controller.E.L1_Replacement |         799     77.80%     77.80% |           1      0.10%     77.90% |           6      0.58%     78.48% |          40      3.89%     82.38% |           0      0.00%     82.38% |           0      0.00%     82.38% |         181     17.62%    100.00%
system.ruby.L1Cache_Controller.E.L1_Replacement::total         1027                      
system.ruby.L1Cache_Controller.E.Fwd_GETX |           7     87.50%     87.50% |           1     12.50%    100.00% |           0      0.00%    100.00% |           0      0.00%    100.00% |           0      0.00%    100.00% |           0      0.00%    100.00% |           0      0.00%    100.00%
system.ruby.L1Cache_Controller.E.Fwd_GETX::total            8                      
system.ruby.L1Cache_Controller.E.Fwd_GETS |           1      0.56%      0.56% |           5      2.82%      3.39% |          42     23.73%     27.12% |          68     38.42%     65.54% |          61     34.46%    100.00% |           0      0.00%    100.00% |           0      0.00%    100.00%
system.ruby.L1Cache_Controller.E.Fwd_GETS::total          177                      
system.ruby.L1Cache_Controller.M.Load    |      169964     96.67%     96.67% |         745      0.42%     97.09% |        1414      0.80%     97.90% |        2025      1.15%     99.05% |        1670      0.95%    100.00% |           0      0.00%    100.00% |           0      0.00%    100.00%
system.ruby.L1Cache_Controller.M.Load::total       175818                      
system.ruby.L1Cache_Controller.M.Store   |      170161     94.54%     94.54% |        1995      1.11%     95.65% |        1979      1.10%     96.75% |        2839      1.58%     98.33% |        3011      1.67%    100.00% |           0      0.00%    100.00% |           0      0.00%    100.00%
system.ruby.L1Cache_Controller.M.Store::total       179985                      
system.ruby.L1Cache_Controller.M.L1_Replacement |         344     18.00%     18.00% |         267     13.97%     31.97% |         226     11.83%     43.80% |         390     20.41%     64.21% |         282     14.76%     78.96% |           0      0.00%     78.96% |         402     21.04%    100.00%
system.ruby.L1Cache_Controller.M.L1_Replacement::total         1911                      
system.ruby.L1Cache_Controller.M.Fwd_GETX |           1      0.04%      0.04% |         507     17.76%     17.79% |         559     19.58%     37.37% |         900     31.52%     68.90% |         888     31.10%    100.00% |           0      0.00%    100.00% |           0      0.00%    100.00%
system.ruby.L1Cache_Controller.M.Fwd_GETX::total         2855                      
system.ruby.L1Cache_Controller.M.Fwd_GETS |          79      7.07%      7.07% |         164     14.68%     21.75% |          68      6.09%     27.84% |         456     40.82%     68.67% |         336     30.08%     98.75% |           0      0.00%     98.75% |          14      1.25%    100.00%
system.ruby.L1Cache_Controller.M.Fwd_GETS::total         1117                      
system.ruby.L1Cache_Controller.IS.Inv    |           0      0.00%      0.00% |           0      0.00%      0.00% |           0      0.00%      0.00% |           1    100.00%    100.00% |           0      0.00%    100.00% |           0      0.00%    100.00% |           0      0.00%    100.00%
system.ruby.L1Cache_Controller.IS.Inv::total            1                      
system.ruby.L1Cache_Controller.IS.L1_Replacement |           0      0.00%      0.00% |           0      0.00%      0.00% |           0      0.00%      0.00% |           7      0.34%      0.34% |           0      0.00%      0.34% |           0      0.00%      0.34% |        2061     99.66%    100.00%
system.ruby.L1Cache_Controller.IS.L1_Replacement::total         2068                      
system.ruby.L1Cache_Controller.IS.Data_Exclusive |        1244     72.88%     72.88% |           7      0.41%     73.29% |          51      2.99%     76.27% |         162      9.49%     85.76% |          62      3.63%     89.40% |           0      0.00%     89.40% |         181     10.60%    100.00%
system.ruby.L1Cache_Controller.IS.Data_Exclusive::total         1707                      
system.ruby.L1Cache_Controller.IS.DataS_fromL1 |           6      0.46%      0.46% |         156     12.06%     12.52% |         179     13.83%     26.35% |         377     29.13%     55.49% |         339     26.20%     81.68% |           0      0.00%     81.68% |         237     18.32%    100.00%
system.ruby.L1Cache_Controller.IS.DataS_fromL1::total         1294                      
system.ruby.L1Cache_Controller.IS.Data_all_Acks |        1091     13.71%     13.71% |        1353     17.00%     30.70% |        1761     22.12%     52.83% |        2173     27.30%     80.13% |        1576     19.80%     99.92% |           0      0.00%     99.92% |           6      0.08%    100.00%
system.ruby.L1Cache_Controller.IS.Data_all_Acks::total         7960                      
system.ruby.L1Cache_Controller.IM.L1_Replacement |           0      0.00%      0.00% |          69      5.93%      5.93% |          50      4.30%     10.22% |          63      5.41%     15.64% |          60      5.15%     20.79% |           0      0.00%     20.79% |         922     79.21%    100.00%
system.ruby.L1Cache_Controller.IM.L1_Replacement::total         1164                      
system.ruby.L1Cache_Controller.IM.Data   |           0      0.00%      0.00% |           8      6.84%      6.84% |          12     10.26%     17.09% |           7      5.98%     23.08% |          10      8.55%     31.62% |           0      0.00%     31.62% |          80     68.38%    100.00%
system.ruby.L1Cache_Controller.IM.Data::total          117                      
system.ruby.L1Cache_Controller.IM.Data_all_Acks |         436      8.28%      8.28% |         841     15.97%     24.25% |         867     16.46%     40.71% |        1474     27.99%     68.69% |        1306     24.80%     93.49% |           0      0.00%     93.49% |         343      6.51%    100.00%
system.ruby.L1Cache_Controller.IM.Data_all_Acks::total         5267                      
system.ruby.L1Cache_Controller.IM.Ack    |           0      0.00%      0.00% |           0      0.00%      0.00% |           3     60.00%     60.00% |           0      0.00%     60.00% |           0      0.00%     60.00% |           0      0.00%     60.00% |           2     40.00%    100.00%
system.ruby.L1Cache_Controller.IM.Ack::total            5                      
system.ruby.L1Cache_Controller.SM.Inv    |           0      0.00%      0.00% |           6     24.00%     24.00% |           0      0.00%     24.00% |           7     28.00%     52.00% |          12     48.00%    100.00% |           0      0.00%    100.00% |           0      0.00%    100.00%
system.ruby.L1Cache_Controller.SM.Inv::total           25                      
system.ruby.L1Cache_Controller.SM.L1_Replacement |           0      0.00%      0.00% |           0      0.00%      0.00% |           0      0.00%      0.00% |           4      9.76%      9.76% |           0      0.00%      9.76% |           0      0.00%      9.76% |          37     90.24%    100.00%
system.ruby.L1Cache_Controller.SM.L1_Replacement::total           41                      
system.ruby.L1Cache_Controller.SM.Ack    |           2      0.20%      0.20% |         123     12.49%     12.69% |          97      9.85%     22.54% |         522     52.99%     75.53% |         241     24.47%    100.00% |           0      0.00%    100.00% |           0      0.00%    100.00%
system.ruby.L1Cache_Controller.SM.Ack::total          985                      
system.ruby.L1Cache_Controller.SM.Ack_all |           2      0.26%      0.26% |          98     12.65%     12.90% |          74      9.55%     22.45% |         309     39.87%     62.32% |         212     27.35%     89.68% |           0      0.00%     89.68% |          80     10.32%    100.00%
system.ruby.L1Cache_Controller.SM.Ack_all::total          775                      
system.ruby.L1Cache_Controller.IS_I.Data_all_Acks |           0      0.00%      0.00% |           0      0.00%      0.00% |           0      0.00%      0.00% |           1    100.00%    100.00% |           0      0.00%    100.00% |           0      0.00%    100.00% |           0      0.00%    100.00%
system.ruby.L1Cache_Controller.IS_I.Data_all_Acks::total            1                      
system.ruby.L1Cache_Controller.M_I.Ifetch |           1    100.00%    100.00% |           0      0.00%    100.00% |           0      0.00%    100.00% |           0      0.00%    100.00% |           0      0.00%    100.00% |           0      0.00%    100.00% |           0      0.00%    100.00%
system.ruby.L1Cache_Controller.M_I.Ifetch::total            1                      
system.ruby.L1Cache_Controller.M_I.Store |           0      0.00%      0.00% |           0      0.00%      0.00% |           0      0.00%      0.00% |           5    100.00%    100.00% |           0      0.00%    100.00% |           0      0.00%    100.00% |           0      0.00%    100.00%
system.ruby.L1Cache_Controller.M_I.Store::total            5                      
system.ruby.L1Cache_Controller.M_I.Fwd_GETX |           0      0.00%      0.00% |           0      0.00%      0.00% |           1    100.00%    100.00% |           0      0.00%    100.00% |           0      0.00%    100.00% |           0      0.00%    100.00% |           0      0.00%    100.00%
system.ruby.L1Cache_Controller.M_I.Fwd_GETX::total            1                      
system.ruby.L1Cache_Controller.M_I.WB_Ack |        1143     38.92%     38.92% |         268      9.12%     48.04% |         231      7.87%     55.91% |         430     14.64%     70.55% |         282      9.60%     80.15% |           0      0.00%     80.15% |         583     19.85%    100.00%
system.ruby.L1Cache_Controller.M_I.WB_Ack::total         2937                      
system.ruby.L1Cache_Controller.SINK_WB_ACK.WB_Ack |           0      0.00%      0.00% |           0      0.00%      0.00% |           1    100.00%    100.00% |           0      0.00%    100.00% |           0      0.00%    100.00% |           0      0.00%    100.00% |           0      0.00%    100.00%
system.ruby.L1Cache_Controller.SINK_WB_ACK.WB_Ack::total            1                      
system.ruby.L2Cache_Controller.L1_GET_INSTR         1344      0.00%      0.00%
system.ruby.L2Cache_Controller.L1_GETS           9658      0.00%      0.00%
system.ruby.L2Cache_Controller.L1_GETX           6052      0.00%      0.00%
system.ruby.L2Cache_Controller.L1_UPGRADE          684      0.00%      0.00%
system.ruby.L2Cache_Controller.L1_PUTX           2938      0.00%      0.00%
system.ruby.L2Cache_Controller.L1_PUTX_old            1      0.00%      0.00%
system.ruby.L2Cache_Controller.Mem_Data          2820      0.00%      0.00%
system.ruby.L2Cache_Controller.WB_Data           1117      0.00%      0.00%
system.ruby.L2Cache_Controller.WB_Data_clean          177      0.00%      0.00%
system.ruby.L2Cache_Controller.Unblock           1294      0.00%      0.00%
system.ruby.L2Cache_Controller.Exclusive_Unblock         7749      0.00%      0.00%
system.ruby.L2Cache_Controller.NP.L1_GET_INSTR          637      0.00%      0.00%
system.ruby.L2Cache_Controller.NP.L1_GETS          634      0.00%      0.00%
system.ruby.L2Cache_Controller.NP.L1_GETX         1549      0.00%      0.00%
system.ruby.L2Cache_Controller.SS.L1_GET_INSTR          607      0.00%      0.00%
system.ruby.L2Cache_Controller.SS.L1_GETS         6617      0.00%      0.00%
system.ruby.L2Cache_Controller.SS.L1_GETX          120      0.00%      0.00%
system.ruby.L2Cache_Controller.SS.L1_UPGRADE          658      0.00%      0.00%
system.ruby.L2Cache_Controller.M.L1_GET_INSTR            5      0.00%      0.00%
system.ruby.L2Cache_Controller.M.L1_GETS         1073      0.00%      0.00%
system.ruby.L2Cache_Controller.M.L1_GETX          851      0.00%      0.00%
system.ruby.L2Cache_Controller.MT.L1_GETS         1294      0.00%      0.00%
system.ruby.L2Cache_Controller.MT.L1_GETX         2864      0.00%      0.00%
system.ruby.L2Cache_Controller.MT.L1_PUTX         2937      0.00%      0.00%
system.ruby.L2Cache_Controller.MT.L1_PUTX_old            1      0.00%      0.00%
system.ruby.L2Cache_Controller.ISS.Mem_Data          634      0.00%      0.00%
system.ruby.L2Cache_Controller.IS.L1_GET_INSTR           95      0.00%      0.00%
system.ruby.L2Cache_Controller.IS.Mem_Data          637      0.00%      0.00%
system.ruby.L2Cache_Controller.IM.L1_GETX            1      0.00%      0.00%
system.ruby.L2Cache_Controller.IM.Mem_Data         1549      0.00%      0.00%
system.ruby.L2Cache_Controller.SS_MB.L1_GETS            5      0.00%      0.00%
system.ruby.L2Cache_Controller.SS_MB.L1_GETX            6      0.00%      0.00%
system.ruby.L2Cache_Controller.SS_MB.L1_UPGRADE           25      0.00%      0.00%
system.ruby.L2Cache_Controller.SS_MB.Exclusive_Unblock          778      0.00%      0.00%
system.ruby.L2Cache_Controller.MT_MB.L1_GETS           14      0.00%      0.00%
system.ruby.L2Cache_Controller.MT_MB.L1_GETX          652      0.00%      0.00%
system.ruby.L2Cache_Controller.MT_MB.L1_PUTX            1      0.00%      0.00%
system.ruby.L2Cache_Controller.MT_MB.Exclusive_Unblock         6971      0.00%      0.00%
system.ruby.L2Cache_Controller.MT_IIB.L1_GETS           21      0.00%      0.00%
system.ruby.L2Cache_Controller.MT_IIB.L1_GETX            9      0.00%      0.00%
system.ruby.L2Cache_Controller.MT_IIB.L1_UPGRADE            1      0.00%      0.00%
system.ruby.L2Cache_Controller.MT_IIB.WB_Data          148      0.00%      0.00%
system.ruby.L2Cache_Controller.MT_IIB.WB_Data_clean            8      0.00%      0.00%
system.ruby.L2Cache_Controller.MT_IIB.Unblock         1138      0.00%      0.00%
system.ruby.L2Cache_Controller.MT_IB.WB_Data          969      0.00%      0.00%
system.ruby.L2Cache_Controller.MT_IB.WB_Data_clean          169      0.00%      0.00%
system.ruby.L2Cache_Controller.MT_SB.Unblock          156      0.00%      0.00%
system.ruby.Directory_Controller.Fetch           2820      0.00%      0.00%
system.ruby.Directory_Controller.Memory_Data         2820      0.00%      0.00%
system.ruby.Directory_Controller.I.Fetch         2820      0.00%      0.00%
system.ruby.Directory_Controller.IM.Memory_Data         2820      0.00%      0.00%

---------- End Simulation Statistics   ----------
