
---------- Begin Simulation Statistics ----------
sim_seconds                                  0.003954                       # Number of seconds simulated
sim_ticks                                  3953741000                       # Number of ticks simulated
final_tick                                 3953741000                       # Number of ticks from beginning of simulation (restored from checkpoints and never reset)
sim_freq                                 1000000000000                       # Frequency of simulated ticks
host_inst_rate                                  18239                       # Simulator instruction rate (inst/s)
host_op_rate                                    30010                       # Simulator op (including micro ops) rate (op/s)
host_tick_rate                               43561202                       # Simulator tick rate (ticks/s)
host_mem_usage                                4551688                       # Number of bytes of host memory used
host_seconds                                    90.76                       # Real time elapsed on the host
sim_insts                                     1655400                       # Number of instructions simulated
sim_ops                                       2723752                       # Number of ops (including micro ops) simulated
system.voltage_domain.voltage                       1                       # Voltage in Volts
system.clk_domain.clock                          1000                       # Clock period in ticks
system.mem_ctrls.clk_domain.clock                2500                       # Clock period in ticks
system.mem_ctrls.bytes_read::ruby.dir_cntrl0       360960                       # Number of bytes read from this memory
system.mem_ctrls.bytes_read::total             360960                       # Number of bytes read from this memory
system.mem_ctrls.num_reads::ruby.dir_cntrl0         2820                       # Number of read requests responded to by this memory
system.mem_ctrls.num_reads::total                2820                       # Number of read requests responded to by this memory
system.mem_ctrls.bw_read::ruby.dir_cntrl0     91295813                       # Total read bandwidth from this memory (bytes/s)
system.mem_ctrls.bw_read::total              91295813                       # Total read bandwidth from this memory (bytes/s)
system.mem_ctrls.bw_total::ruby.dir_cntrl0     91295813                       # Total bandwidth to/from this memory (bytes/s)
system.mem_ctrls.bw_total::total             91295813                       # Total bandwidth to/from this memory (bytes/s)
system.mem_ctrls.memReq                          2820                       # Total number of memory requests
system.mem_ctrls.memRead                         2820                       # Number of memory reads
system.mem_ctrls.memRefresh                     11040                       # Number of memory refreshes
system.mem_ctrls.memWaitCycles                  24089                       # Delay stalled at the head of the bank queue
system.mem_ctrls.memInputQ                      15872                       # Delay in the input queue
system.mem_ctrls.memBankQ                       74181                       # Delay behind the head of the bank queue
system.mem_ctrls.totalStalls                   114142                       # Total number of stall cycles
system.mem_ctrls.stallsPerReq               40.475887                       # Expected number of stall cycles per request
system.mem_ctrls.memBankBusy                     5578                       # memory stalls due to busy bank
system.mem_ctrls.memBusBusy                      6418                       # memory stalls due to busy bus
system.mem_ctrls.memDataBusBusy                  2190                       # memory stalls due to read read turnaround
system.mem_ctrls.memArbWait                      4270                       # memory stalls due to arbitration
system.mem_ctrls.memNotOld                       5633                       # memory stalls due to anti starvation
system.mem_ctrls.memBankCount            |         100      3.55%      3.55% |          83      2.94%      6.49% |          88      3.12%      9.61% |          89      3.16%     12.77% |          85      3.01%     15.78% |          87      3.09%     18.87% |          82      2.91%     21.77% |          77      2.73%     24.50% |          75      2.66%     27.16% |          74      2.62%     29.79% |          76      2.70%     32.48% |          87      3.09%     35.57% |          80      2.84%     38.40% |          84      2.98%     41.38% |          96      3.40%     44.79% |         109      3.87%     48.65% |          99      3.51%     52.16% |          88      3.12%     55.28% |          86      3.05%     58.33% |          90      3.19%     61.52% |          91      3.23%     64.75% |          93      3.30%     68.05% |          85      3.01%     71.06% |          83      2.94%     74.01% |          86      3.05%     77.06% |          91      3.23%     80.28% |          92      3.26%     83.55% |          94      3.33%     86.88% |          88      3.12%     90.00% |          94      3.33%     93.33% |          91      3.23%     96.56% |          97      3.44%    100.00% # Number of accesses per bank
system.mem_ctrls.memBankCount::total             2820                       # Number of accesses per bank
system.ruby_clk_domain.clock                      500                       # Clock period in ticks
system.ruby.phys_mem.bytes_read::writebacks        45204                       # Number of bytes read from this memory
system.ruby.phys_mem.bytes_read::cpu.inst     18887608                       # Number of bytes read from this memory
system.ruby.phys_mem.bytes_read::cpu.data      2308588                       # Number of bytes read from this memory
system.ruby.phys_mem.bytes_read::gpu.ce         53252                       # Number of bytes read from this memory
system.ruby.phys_mem.bytes_read::gpu.shader_cores0.data      2068704                       # Number of bytes read from this memory
system.ruby.phys_mem.bytes_read::gpu.shader_cores0.inst         1200                       # Number of bytes read from this memory
system.ruby.phys_mem.bytes_read::gpu.shader_cores1.data      1674688                       # Number of bytes read from this memory
system.ruby.phys_mem.bytes_read::gpu.shader_cores1.inst         1392                       # Number of bytes read from this memory
system.ruby.phys_mem.bytes_read::gpu.shader_cores2.data      1636288                       # Number of bytes read from this memory
system.ruby.phys_mem.bytes_read::gpu.shader_cores2.inst         1768                       # Number of bytes read from this memory
system.ruby.phys_mem.bytes_read::gpu.shader_cores3.data      2075072                       # Number of bytes read from this memory
system.ruby.phys_mem.bytes_read::gpu.shader_cores3.inst         1552                       # Number of bytes read from this memory
system.ruby.phys_mem.bytes_read::total       28755316                       # Number of bytes read from this memory
system.ruby.phys_mem.bytes_inst_read::cpu.inst     18887608                       # Number of instructions bytes read from this memory
system.ruby.phys_mem.bytes_inst_read::gpu.shader_cores0.inst         1200                       # Number of instructions bytes read from this memory
system.ruby.phys_mem.bytes_inst_read::gpu.shader_cores1.inst         1392                       # Number of instructions bytes read from this memory
system.ruby.phys_mem.bytes_inst_read::gpu.shader_cores2.inst         1768                       # Number of instructions bytes read from this memory
system.ruby.phys_mem.bytes_inst_read::gpu.shader_cores3.inst         1552                       # Number of instructions bytes read from this memory
system.ruby.phys_mem.bytes_inst_read::total     18893520                       # Number of instructions bytes read from this memory
system.ruby.phys_mem.bytes_written::writebacks        45204                       # Number of bytes written to this memory
system.ruby.phys_mem.bytes_written::cpu.data      1152841                       # Number of bytes written to this memory
system.ruby.phys_mem.bytes_written::gpu.ce        53252                       # Number of bytes written to this memory
system.ruby.phys_mem.bytes_written::gpu.shader_cores0.data        34196                       # Number of bytes written to this memory
system.ruby.phys_mem.bytes_written::gpu.shader_cores1.data        34196                       # Number of bytes written to this memory
system.ruby.phys_mem.bytes_written::gpu.shader_cores2.data        64580                       # Number of bytes written to this memory
system.ruby.phys_mem.bytes_written::gpu.shader_cores3.data        36792                       # Number of bytes written to this memory
system.ruby.phys_mem.bytes_written::total      1421061                       # Number of bytes written to this memory
system.ruby.phys_mem.num_reads::writebacks        11301                       # Number of read requests responded to by this memory
system.ruby.phys_mem.num_reads::cpu.inst      2360951                       # Number of read requests responded to by this memory
system.ruby.phys_mem.num_reads::cpu.data       312528                       # Number of read requests responded to by this memory
system.ruby.phys_mem.num_reads::gpu.ce            424                       # Number of read requests responded to by this memory
system.ruby.phys_mem.num_reads::gpu.shader_cores0.data        61200                       # Number of read requests responded to by this memory
system.ruby.phys_mem.num_reads::gpu.shader_cores0.inst           50                       # Number of read requests responded to by this memory
system.ruby.phys_mem.num_reads::gpu.shader_cores1.data        48917                       # Number of read requests responded to by this memory
system.ruby.phys_mem.num_reads::gpu.shader_cores1.inst           58                       # Number of read requests responded to by this memory
system.ruby.phys_mem.num_reads::gpu.shader_cores2.data        46112                       # Number of read requests responded to by this memory
system.ruby.phys_mem.num_reads::gpu.shader_cores2.inst           74                       # Number of read requests responded to by this memory
system.ruby.phys_mem.num_reads::gpu.shader_cores3.data        60203                       # Number of read requests responded to by this memory
system.ruby.phys_mem.num_reads::gpu.shader_cores3.inst           65                       # Number of read requests responded to by this memory
system.ruby.phys_mem.num_reads::total         2901883                       # Number of read requests responded to by this memory
system.ruby.phys_mem.num_writes::writebacks        11301                       # Number of write requests responded to by this memory
system.ruby.phys_mem.num_writes::cpu.data       165456                       # Number of write requests responded to by this memory
system.ruby.phys_mem.num_writes::gpu.ce           423                       # Number of write requests responded to by this memory
system.ruby.phys_mem.num_writes::gpu.shader_cores0.data         2280                       # Number of write requests responded to by this memory
system.ruby.phys_mem.num_writes::gpu.shader_cores1.data         2440                       # Number of write requests responded to by this memory
system.ruby.phys_mem.num_writes::gpu.shader_cores2.data         2851                       # Number of write requests responded to by this memory
system.ruby.phys_mem.num_writes::gpu.shader_cores3.data         2820                       # Number of write requests responded to by this memory
system.ruby.phys_mem.num_writes::total         187571                       # Number of write requests responded to by this memory
system.ruby.phys_mem.bw_read::writebacks     11433222                       # Total read bandwidth from this memory (bytes/s)
system.ruby.phys_mem.bw_read::cpu.inst     4777148528                       # Total read bandwidth from this memory (bytes/s)
system.ruby.phys_mem.bw_read::cpu.data      583899654                       # Total read bandwidth from this memory (bytes/s)
system.ruby.phys_mem.bw_read::gpu.ce         13468763                       # Total read bandwidth from this memory (bytes/s)
system.ruby.phys_mem.bw_read::gpu.shader_cores0.data    523226989                       # Total read bandwidth from this memory (bytes/s)
system.ruby.phys_mem.bw_read::gpu.shader_cores0.inst       303510                       # Total read bandwidth from this memory (bytes/s)
system.ruby.phys_mem.bw_read::gpu.shader_cores1.data    423570487                       # Total read bandwidth from this memory (bytes/s)
system.ruby.phys_mem.bw_read::gpu.shader_cores1.inst       352072                       # Total read bandwidth from this memory (bytes/s)
system.ruby.phys_mem.bw_read::gpu.shader_cores2.data    413858166                       # Total read bandwidth from this memory (bytes/s)
system.ruby.phys_mem.bw_read::gpu.shader_cores2.inst       447171                       # Total read bandwidth from this memory (bytes/s)
system.ruby.phys_mem.bw_read::gpu.shader_cores3.data    524837616                       # Total read bandwidth from this memory (bytes/s)
system.ruby.phys_mem.bw_read::gpu.shader_cores3.inst       392540                       # Total read bandwidth from this memory (bytes/s)
system.ruby.phys_mem.bw_read::total        7272938718                       # Total read bandwidth from this memory (bytes/s)
system.ruby.phys_mem.bw_inst_read::cpu.inst   4777148528                       # Instruction read bandwidth from this memory (bytes/s)
system.ruby.phys_mem.bw_inst_read::gpu.shader_cores0.inst       303510                       # Instruction read bandwidth from this memory (bytes/s)
system.ruby.phys_mem.bw_inst_read::gpu.shader_cores1.inst       352072                       # Instruction read bandwidth from this memory (bytes/s)
system.ruby.phys_mem.bw_inst_read::gpu.shader_cores2.inst       447171                       # Instruction read bandwidth from this memory (bytes/s)
system.ruby.phys_mem.bw_inst_read::gpu.shader_cores3.inst       392540                       # Instruction read bandwidth from this memory (bytes/s)
system.ruby.phys_mem.bw_inst_read::total   4778643821                       # Instruction read bandwidth from this memory (bytes/s)
system.ruby.phys_mem.bw_write::writebacks     11433222                       # Write bandwidth from this memory (bytes/s)
system.ruby.phys_mem.bw_write::cpu.data     291582327                       # Write bandwidth from this memory (bytes/s)
system.ruby.phys_mem.bw_write::gpu.ce        13468763                       # Write bandwidth from this memory (bytes/s)
system.ruby.phys_mem.bw_write::gpu.shader_cores0.data      8649024                       # Write bandwidth from this memory (bytes/s)
system.ruby.phys_mem.bw_write::gpu.shader_cores1.data      8649024                       # Write bandwidth from this memory (bytes/s)
system.ruby.phys_mem.bw_write::gpu.shader_cores2.data     16333897                       # Write bandwidth from this memory (bytes/s)
system.ruby.phys_mem.bw_write::gpu.shader_cores3.data      9305617                       # Write bandwidth from this memory (bytes/s)
system.ruby.phys_mem.bw_write::total        359421874                       # Write bandwidth from this memory (bytes/s)
system.ruby.phys_mem.bw_total::writebacks     22866445                       # Total bandwidth to/from this memory (bytes/s)
system.ruby.phys_mem.bw_total::cpu.inst    4777148528                       # Total bandwidth to/from this memory (bytes/s)
system.ruby.phys_mem.bw_total::cpu.data     875481980                       # Total bandwidth to/from this memory (bytes/s)
system.ruby.phys_mem.bw_total::gpu.ce        26937526                       # Total bandwidth to/from this memory (bytes/s)
system.ruby.phys_mem.bw_total::gpu.shader_cores0.data    531876013                       # Total bandwidth to/from this memory (bytes/s)
system.ruby.phys_mem.bw_total::gpu.shader_cores0.inst       303510                       # Total bandwidth to/from this memory (bytes/s)
system.ruby.phys_mem.bw_total::gpu.shader_cores1.data    432219511                       # Total bandwidth to/from this memory (bytes/s)
system.ruby.phys_mem.bw_total::gpu.shader_cores1.inst       352072                       # Total bandwidth to/from this memory (bytes/s)
system.ruby.phys_mem.bw_total::gpu.shader_cores2.data    430192064                       # Total bandwidth to/from this memory (bytes/s)
system.ruby.phys_mem.bw_total::gpu.shader_cores2.inst       447171                       # Total bandwidth to/from this memory (bytes/s)
system.ruby.phys_mem.bw_total::gpu.shader_cores3.data    534143233                       # Total bandwidth to/from this memory (bytes/s)
system.ruby.phys_mem.bw_total::gpu.shader_cores3.inst       392540                       # Total bandwidth to/from this memory (bytes/s)
system.ruby.phys_mem.bw_total::total       7632360592                       # Total bandwidth to/from this memory (bytes/s)
system.cpu_voltage_domain.voltage                   1                       # Voltage in Volts
system.cpu_clk_domain.clock                       500                       # Clock period in ticks
system.cpu.apic_clk_domain.clock                 8000                       # Clock period in ticks
system.cpu.workload.num_syscalls                   28                       # Number of system calls
system.cpu.numCycles                          7907482                       # number of cpu cycles simulated
system.cpu.numWorkItemsStarted                      1                       # number of work items this cpu started
system.cpu.numWorkItemsCompleted                    1                       # number of work items this cpu completed
system.cpu.committedInsts                     1655400                       # Number of instructions committed
system.cpu.committedOps                       2723752                       # Number of ops (including micro ops) committed
system.cpu.num_int_alu_accesses               1974642                       # Number of integer alu accesses
system.cpu.num_fp_alu_accesses                1026154                       # Number of float alu accesses
system.cpu.num_func_calls                       31676                       # number of times a function call or return occured
system.cpu.num_conditional_control_insts       149205                       # number of instructions that are conditional controls
system.cpu.num_int_insts                      1974642                       # number of integer instructions
system.cpu.num_fp_insts                       1026154                       # number of float instructions
system.cpu.num_int_register_reads             3737239                       # number of times the integer registers were read
system.cpu.num_int_register_writes            1435200                       # number of times the integer registers were written
system.cpu.num_fp_register_reads              1958134                       # number of times the floating registers were read
system.cpu.num_fp_register_writes              903395                       # number of times the floating registers were written
system.cpu.num_cc_register_reads              1056894                       # number of times the CC registers were read
system.cpu.num_cc_register_writes              673719                       # number of times the CC registers were written
system.cpu.num_mem_refs                        477978                       # number of memory refs
system.cpu.num_load_insts                      312522                       # Number of load instructions
system.cpu.num_store_insts                     165456                       # Number of store instructions
system.cpu.num_idle_cycles               1941803.635509                       # Number of idle cycles
system.cpu.num_busy_cycles               5965678.364491                       # Number of busy cycles
system.cpu.not_idle_fraction                 0.754435                       # Percentage of non-idle cycles
system.cpu.idle_fraction                     0.245565                       # Percentage of idle cycles
system.cpu.Branches                            196559                       # Number of branches fetched
system.cpu.op_class::No_OpClass                  2269      0.08%      0.08% # Class of executed instruction
system.cpu.op_class::IntAlu                   1718526     63.09%     63.18% # Class of executed instruction
system.cpu.op_class::IntMult                    18031      0.66%     63.84% # Class of executed instruction
system.cpu.op_class::IntDiv                      1293      0.05%     63.89% # Class of executed instruction
system.cpu.op_class::FloatAdd                  505655     18.56%     82.45% # Class of executed instruction
system.cpu.op_class::FloatCmp                       0      0.00%     82.45% # Class of executed instruction
system.cpu.op_class::FloatCvt                       0      0.00%     82.45% # Class of executed instruction
system.cpu.op_class::FloatMult                      0      0.00%     82.45% # Class of executed instruction
system.cpu.op_class::FloatDiv                       0      0.00%     82.45% # Class of executed instruction
system.cpu.op_class::FloatSqrt                      0      0.00%     82.45% # Class of executed instruction
system.cpu.op_class::SimdAdd                        0      0.00%     82.45% # Class of executed instruction
system.cpu.op_class::SimdAddAcc                     0      0.00%     82.45% # Class of executed instruction
system.cpu.op_class::SimdAlu                        0      0.00%     82.45% # Class of executed instruction
system.cpu.op_class::SimdCmp                        0      0.00%     82.45% # Class of executed instruction
system.cpu.op_class::SimdCvt                        0      0.00%     82.45% # Class of executed instruction
system.cpu.op_class::SimdMisc                       0      0.00%     82.45% # Class of executed instruction
system.cpu.op_class::SimdMult                       0      0.00%     82.45% # Class of executed instruction
system.cpu.op_class::SimdMultAcc                    0      0.00%     82.45% # Class of executed instruction
system.cpu.op_class::SimdShift                      0      0.00%     82.45% # Class of executed instruction
system.cpu.op_class::SimdShiftAcc                   0      0.00%     82.45% # Class of executed instruction
system.cpu.op_class::SimdSqrt                       0      0.00%     82.45% # Class of executed instruction
system.cpu.op_class::SimdFloatAdd                   0      0.00%     82.45% # Class of executed instruction
system.cpu.op_class::SimdFloatAlu                   0      0.00%     82.45% # Class of executed instruction
system.cpu.op_class::SimdFloatCmp                   0      0.00%     82.45% # Class of executed instruction
system.cpu.op_class::SimdFloatCvt                   0      0.00%     82.45% # Class of executed instruction
system.cpu.op_class::SimdFloatDiv                   0      0.00%     82.45% # Class of executed instruction
system.cpu.op_class::SimdFloatMisc                  0      0.00%     82.45% # Class of executed instruction
system.cpu.op_class::SimdFloatMult                  0      0.00%     82.45% # Class of executed instruction
system.cpu.op_class::SimdFloatMultAcc               0      0.00%     82.45% # Class of executed instruction
system.cpu.op_class::SimdFloatSqrt                  0      0.00%     82.45% # Class of executed instruction
system.cpu.op_class::MemRead                   312522     11.47%     93.93% # Class of executed instruction
system.cpu.op_class::MemWrite                  165456      6.07%    100.00% # Class of executed instruction
system.cpu.op_class::IprAccess                      0      0.00%    100.00% # Class of executed instruction
system.cpu.op_class::InstPrefetch                   0      0.00%    100.00% # Class of executed instruction
system.cpu.op_class::total                    2723752                       # Class of executed instruction
system.gpu.clk_domain.voltage_domain.voltage            1                       # Voltage in Volts
system.gpu.clk_domain.clock                      1429                       # Clock period in ticks
system.gpu.dram_wrapper.clk_domain.clock          541                       # Clock period in ticks
system.gpu.icnt_wrapper.clk_domain.clock         2858                       # Clock period in ticks
system.ruby.delayHist::bucket_size               1024                       # delay histogram for all message
system.ruby.delayHist::max_bucket               10239                       # delay histogram for all message
system.ruby.delayHist::samples                  59281                       # delay histogram for all message
system.ruby.delayHist::mean                 60.449992                       # delay histogram for all message
system.ruby.delayHist::stdev               494.693525                       # delay histogram for all message
system.ruby.delayHist                    |       58681     98.99%     98.99% |          55      0.09%     99.08% |          31      0.05%     99.13% |          91      0.15%     99.29% |         168      0.28%     99.57% |         113      0.19%     99.76% |         142      0.24%    100.00% |           0      0.00%    100.00% |           0      0.00%    100.00% |           0      0.00%    100.00% # delay histogram for all message
system.ruby.delayHist::total                    59281                       # delay histogram for all message
system.ruby.outstanding_req_hist::bucket_size            8                      
system.ruby.outstanding_req_hist::max_bucket           79                      
system.ruby.outstanding_req_hist::samples      3071450                      
system.ruby.outstanding_req_hist::mean       1.034324                      
system.ruby.outstanding_req_hist::gmean      1.007754                      
system.ruby.outstanding_req_hist::stdev      0.982002                      
system.ruby.outstanding_req_hist         |     3067904     99.88%     99.88% |        1604      0.05%     99.94% |         710      0.02%     99.96% |         533      0.02%     99.98% |         134      0.00%     99.98% |          56      0.00%     99.98% |          41      0.00%     99.98% |         343      0.01%    100.00% |         125      0.00%    100.00% |           0      0.00%    100.00%
system.ruby.outstanding_req_hist::total       3071450                      
system.ruby.latency_hist::bucket_size            1024                      
system.ruby.latency_hist::max_bucket            10239                      
system.ruby.latency_hist::samples             3071450                      
system.ruby.latency_hist::mean               1.936243                      
system.ruby.latency_hist::gmean              1.021082                      
system.ruby.latency_hist::stdev             42.869359                      
system.ruby.latency_hist                 |     3070809     99.98%     99.98% |         143      0.00%     99.98% |         267      0.01%     99.99% |         186      0.01%    100.00% |          27      0.00%    100.00% |          18      0.00%    100.00% |           0      0.00%    100.00% |           0      0.00%    100.00% |           0      0.00%    100.00% |           0      0.00%    100.00%
system.ruby.latency_hist::total               3071450                      
system.ruby.hit_latency_hist::bucket_size            1                      
system.ruby.hit_latency_hist::max_bucket            9                      
system.ruby.hit_latency_hist::samples         3054553                      
system.ruby.hit_latency_hist::mean                  1                      
system.ruby.hit_latency_hist::gmean                 1                      
system.ruby.hit_latency_hist             |           0      0.00%      0.00% |     3054553    100.00%    100.00% |           0      0.00%    100.00% |           0      0.00%    100.00% |           0      0.00%    100.00% |           0      0.00%    100.00% |           0      0.00%    100.00% |           0      0.00%    100.00% |           0      0.00%    100.00% |           0      0.00%    100.00%
system.ruby.hit_latency_hist::total           3054553                      
system.ruby.miss_latency_hist::bucket_size         1024                      
system.ruby.miss_latency_hist::max_bucket        10239                      
system.ruby.miss_latency_hist::samples          16897                      
system.ruby.miss_latency_hist::mean        171.185418                      
system.ruby.miss_latency_hist::gmean        44.360759                      
system.ruby.miss_latency_hist::stdev       552.518593                      
system.ruby.miss_latency_hist            |       16256     96.21%     96.21% |         143      0.85%     97.05% |         267      1.58%     98.63% |         186      1.10%     99.73% |          27      0.16%     99.89% |          18      0.11%    100.00% |           0      0.00%    100.00% |           0      0.00%    100.00% |           0      0.00%    100.00% |           0      0.00%    100.00%
system.ruby.miss_latency_hist::total            16897                      
system.gpu.shader_mmu.numPagefaults                 0                       # Number of Pagefaults
system.gpu.shader_mmu.numPagewalks                 29                       # Number of Pagewalks
system.gpu.shader_mmu.totalRequests                29                       # Total number of requests
system.gpu.shader_mmu.l2hits                        0                       # Hits in the shared L2
system.gpu.shader_mmu.prefetchHits                  0                       # Number of prefetch hits
system.gpu.shader_mmu.numPrefetches                 0                       # Number of prefetchs
system.gpu.shader_mmu.prefetchFaults                0                       # Number of faults caused by prefetches
system.gpu.shader_mmu.pagefaultLatency::samples            0                       # Latency to complete the pagefault
system.gpu.shader_mmu.pagefaultLatency::mean          nan                       # Latency to complete the pagefault
system.gpu.shader_mmu.pagefaultLatency::gmean          nan                       # Latency to complete the pagefault
system.gpu.shader_mmu.pagefaultLatency::stdev          nan                       # Latency to complete the pagefault
system.gpu.shader_mmu.pagefaultLatency::0            0                       # Latency to complete the pagefault
system.gpu.shader_mmu.pagefaultLatency::1            0                       # Latency to complete the pagefault
system.gpu.shader_mmu.pagefaultLatency::2            0                       # Latency to complete the pagefault
system.gpu.shader_mmu.pagefaultLatency::3            0                       # Latency to complete the pagefault
system.gpu.shader_mmu.pagefaultLatency::4            0                       # Latency to complete the pagefault
system.gpu.shader_mmu.pagefaultLatency::5            0                       # Latency to complete the pagefault
system.gpu.shader_mmu.pagefaultLatency::6            0                       # Latency to complete the pagefault
system.gpu.shader_mmu.pagefaultLatency::7            0                       # Latency to complete the pagefault
system.gpu.shader_mmu.pagefaultLatency::8            0                       # Latency to complete the pagefault
system.gpu.shader_mmu.pagefaultLatency::9            0                       # Latency to complete the pagefault
system.gpu.shader_mmu.pagefaultLatency::10            0                       # Latency to complete the pagefault
system.gpu.shader_mmu.pagefaultLatency::11            0                       # Latency to complete the pagefault
system.gpu.shader_mmu.pagefaultLatency::12            0                       # Latency to complete the pagefault
system.gpu.shader_mmu.pagefaultLatency::13            0                       # Latency to complete the pagefault
system.gpu.shader_mmu.pagefaultLatency::14            0                       # Latency to complete the pagefault
system.gpu.shader_mmu.pagefaultLatency::15            0                       # Latency to complete the pagefault
system.gpu.shader_mmu.pagefaultLatency::16            0                       # Latency to complete the pagefault
system.gpu.shader_mmu.pagefaultLatency::17            0                       # Latency to complete the pagefault
system.gpu.shader_mmu.pagefaultLatency::18            0                       # Latency to complete the pagefault
system.gpu.shader_mmu.pagefaultLatency::19            0                       # Latency to complete the pagefault
system.gpu.shader_mmu.pagefaultLatency::20            0                       # Latency to complete the pagefault
system.gpu.shader_mmu.pagefaultLatency::21            0                       # Latency to complete the pagefault
system.gpu.shader_mmu.pagefaultLatency::22            0                       # Latency to complete the pagefault
system.gpu.shader_mmu.pagefaultLatency::23            0                       # Latency to complete the pagefault
system.gpu.shader_mmu.pagefaultLatency::24            0                       # Latency to complete the pagefault
system.gpu.shader_mmu.pagefaultLatency::25            0                       # Latency to complete the pagefault
system.gpu.shader_mmu.pagefaultLatency::26            0                       # Latency to complete the pagefault
system.gpu.shader_mmu.pagefaultLatency::27            0                       # Latency to complete the pagefault
system.gpu.shader_mmu.pagefaultLatency::28            0                       # Latency to complete the pagefault
system.gpu.shader_mmu.pagefaultLatency::29            0                       # Latency to complete the pagefault
system.gpu.shader_mmu.pagefaultLatency::30            0                       # Latency to complete the pagefault
system.gpu.shader_mmu.pagefaultLatency::31            0                       # Latency to complete the pagefault
system.gpu.shader_mmu.pagefaultLatency::total            0                       # Latency to complete the pagefault
system.gpu.shader_mmu.concurrentWalks::samples           29                       # Number of outstanding walks
system.gpu.shader_mmu.concurrentWalks::mean            0                       # Number of outstanding walks
system.gpu.shader_mmu.concurrentWalks::gmean            0                       # Number of outstanding walks
system.gpu.shader_mmu.concurrentWalks::stdev            0                       # Number of outstanding walks
system.gpu.shader_mmu.concurrentWalks::0           29    100.00%    100.00% # Number of outstanding walks
system.gpu.shader_mmu.concurrentWalks::1            0      0.00%    100.00% # Number of outstanding walks
system.gpu.shader_mmu.concurrentWalks::2            0      0.00%    100.00% # Number of outstanding walks
system.gpu.shader_mmu.concurrentWalks::3            0      0.00%    100.00% # Number of outstanding walks
system.gpu.shader_mmu.concurrentWalks::4            0      0.00%    100.00% # Number of outstanding walks
system.gpu.shader_mmu.concurrentWalks::5            0      0.00%    100.00% # Number of outstanding walks
system.gpu.shader_mmu.concurrentWalks::6            0      0.00%    100.00% # Number of outstanding walks
system.gpu.shader_mmu.concurrentWalks::7            0      0.00%    100.00% # Number of outstanding walks
system.gpu.shader_mmu.concurrentWalks::8            0      0.00%    100.00% # Number of outstanding walks
system.gpu.shader_mmu.concurrentWalks::9            0      0.00%    100.00% # Number of outstanding walks
system.gpu.shader_mmu.concurrentWalks::10            0      0.00%    100.00% # Number of outstanding walks
system.gpu.shader_mmu.concurrentWalks::11            0      0.00%    100.00% # Number of outstanding walks
system.gpu.shader_mmu.concurrentWalks::12            0      0.00%    100.00% # Number of outstanding walks
system.gpu.shader_mmu.concurrentWalks::13            0      0.00%    100.00% # Number of outstanding walks
system.gpu.shader_mmu.concurrentWalks::14            0      0.00%    100.00% # Number of outstanding walks
system.gpu.shader_mmu.concurrentWalks::15            0      0.00%    100.00% # Number of outstanding walks
system.gpu.shader_mmu.concurrentWalks::total           29                       # Number of outstanding walks
system.gpu.shader_mmu.pagewalkLatency::samples           29                       # Latency to complete the pagewalk
system.gpu.shader_mmu.pagewalkLatency::mean            0                       # Latency to complete the pagewalk
system.gpu.shader_mmu.pagewalkLatency::gmean            0                       # Latency to complete the pagewalk
system.gpu.shader_mmu.pagewalkLatency::stdev            0                       # Latency to complete the pagewalk
system.gpu.shader_mmu.pagewalkLatency::0           29    100.00%    100.00% # Latency to complete the pagewalk
system.gpu.shader_mmu.pagewalkLatency::1            0      0.00%    100.00% # Latency to complete the pagewalk
system.gpu.shader_mmu.pagewalkLatency::2            0      0.00%    100.00% # Latency to complete the pagewalk
system.gpu.shader_mmu.pagewalkLatency::3            0      0.00%    100.00% # Latency to complete the pagewalk
system.gpu.shader_mmu.pagewalkLatency::4            0      0.00%    100.00% # Latency to complete the pagewalk
system.gpu.shader_mmu.pagewalkLatency::5            0      0.00%    100.00% # Latency to complete the pagewalk
system.gpu.shader_mmu.pagewalkLatency::6            0      0.00%    100.00% # Latency to complete the pagewalk
system.gpu.shader_mmu.pagewalkLatency::7            0      0.00%    100.00% # Latency to complete the pagewalk
system.gpu.shader_mmu.pagewalkLatency::8            0      0.00%    100.00% # Latency to complete the pagewalk
system.gpu.shader_mmu.pagewalkLatency::9            0      0.00%    100.00% # Latency to complete the pagewalk
system.gpu.shader_mmu.pagewalkLatency::10            0      0.00%    100.00% # Latency to complete the pagewalk
system.gpu.shader_mmu.pagewalkLatency::11            0      0.00%    100.00% # Latency to complete the pagewalk
system.gpu.shader_mmu.pagewalkLatency::12            0      0.00%    100.00% # Latency to complete the pagewalk
system.gpu.shader_mmu.pagewalkLatency::13            0      0.00%    100.00% # Latency to complete the pagewalk
system.gpu.shader_mmu.pagewalkLatency::14            0      0.00%    100.00% # Latency to complete the pagewalk
system.gpu.shader_mmu.pagewalkLatency::15            0      0.00%    100.00% # Latency to complete the pagewalk
system.gpu.shader_mmu.pagewalkLatency::16            0      0.00%    100.00% # Latency to complete the pagewalk
system.gpu.shader_mmu.pagewalkLatency::17            0      0.00%    100.00% # Latency to complete the pagewalk
system.gpu.shader_mmu.pagewalkLatency::18            0      0.00%    100.00% # Latency to complete the pagewalk
system.gpu.shader_mmu.pagewalkLatency::19            0      0.00%    100.00% # Latency to complete the pagewalk
system.gpu.shader_mmu.pagewalkLatency::20            0      0.00%    100.00% # Latency to complete the pagewalk
system.gpu.shader_mmu.pagewalkLatency::21            0      0.00%    100.00% # Latency to complete the pagewalk
system.gpu.shader_mmu.pagewalkLatency::22            0      0.00%    100.00% # Latency to complete the pagewalk
system.gpu.shader_mmu.pagewalkLatency::23            0      0.00%    100.00% # Latency to complete the pagewalk
system.gpu.shader_mmu.pagewalkLatency::24            0      0.00%    100.00% # Latency to complete the pagewalk
system.gpu.shader_mmu.pagewalkLatency::25            0      0.00%    100.00% # Latency to complete the pagewalk
system.gpu.shader_mmu.pagewalkLatency::26            0      0.00%    100.00% # Latency to complete the pagewalk
system.gpu.shader_mmu.pagewalkLatency::27            0      0.00%    100.00% # Latency to complete the pagewalk
system.gpu.shader_mmu.pagewalkLatency::28            0      0.00%    100.00% # Latency to complete the pagewalk
system.gpu.shader_mmu.pagewalkLatency::29            0      0.00%    100.00% # Latency to complete the pagewalk
system.gpu.shader_mmu.pagewalkLatency::30            0      0.00%    100.00% # Latency to complete the pagewalk
system.gpu.shader_mmu.pagewalkLatency::31            0      0.00%    100.00% # Latency to complete the pagewalk
system.gpu.shader_mmu.pagewalkLatency::total           29                       # Latency to complete the pagewalk
system.gpu.kernels_started                          9                       # Number of kernels started
system.gpu.kernels_completed                        9                       # Number of kernels completed
system.gpu.ce.device_dtb.hits                       0                       # Number of hits in this TLB
system.gpu.ce.device_dtb.misses                     0                       # Number of misses in this TLB
system.gpu.ce.device_dtb.hitRate                  nan                       # Hit rate for this TLB
system.gpu.ce.host_dtb.hits                       401                       # Number of hits in this TLB
system.gpu.ce.host_dtb.misses                      29                       # Number of misses in this TLB
system.gpu.ce.host_dtb.hitRate               0.932558                       # Hit rate for this TLB
system.gpu.shader_cores0.itb.hits                   0                       # Number of hits in this TLB
system.gpu.shader_cores0.itb.misses                 0                       # Number of misses in this TLB
system.gpu.shader_cores0.itb.hitRate              nan                       # Hit rate for this TLB
system.gpu.shader_cores0.local_loads                0                       # Number of loads from local space
system.gpu.shader_cores0.local_stores               0                       # Number of stores to local space
system.gpu.shader_cores0.shared_loads          363404                       # Number of loads from shared space
system.gpu.shader_cores0.shared_stores          28424                       # Number of stores to shared space
system.gpu.shader_cores0.param_kernel_loads       744532                       # Number of loads from kernel parameter space
system.gpu.shader_cores0.param_local_loads            0                       # Number of loads from local parameter space
system.gpu.shader_cores0.param_local_stores            0                       # Number of stores to local parameter space
system.gpu.shader_cores0.const_loads                0                       # Number of loads from constant space
system.gpu.shader_cores0.tex_loads                  0                       # Number of loads from texture space
system.gpu.shader_cores0.global_loads         1834542                       # Number of loads from global space
system.gpu.shader_cores0.global_stores           8549                       # Number of stores to global space
system.gpu.shader_cores0.surf_loads                 0                       # Number of loads from surface space
system.gpu.shader_cores0.generic_loads              0                       # Number of loads from generic spaces (global, shared, local)
system.gpu.shader_cores0.generic_stores             0                       # Number of stores to generic spaces (global, shared, local)
system.gpu.shader_cores0.inst_cache_requests           50                       # Number of instruction cache requests sent
system.gpu.shader_cores0.inst_cache_retries            0                       # Number of instruction cache retries
system.gpu.shader_cores0.inst_counts::0             0                       # Inst counts: 1: ALU, 2: MAD, 3: CTRL, 4: SFU, 5: MEM, 6: TEX, 7: NOP
system.gpu.shader_cores0.inst_counts::1      11409585                       # Inst counts: 1: ALU, 2: MAD, 3: CTRL, 4: SFU, 5: MEM, 6: TEX, 7: NOP
system.gpu.shader_cores0.inst_counts::2       1826580                       # Inst counts: 1: ALU, 2: MAD, 3: CTRL, 4: SFU, 5: MEM, 6: TEX, 7: NOP
system.gpu.shader_cores0.inst_counts::3       1638144                       # Inst counts: 1: ALU, 2: MAD, 3: CTRL, 4: SFU, 5: MEM, 6: TEX, 7: NOP
system.gpu.shader_cores0.inst_counts::4        247872                       # Inst counts: 1: ALU, 2: MAD, 3: CTRL, 4: SFU, 5: MEM, 6: TEX, 7: NOP
system.gpu.shader_cores0.inst_counts::5       2979451                       # Inst counts: 1: ALU, 2: MAD, 3: CTRL, 4: SFU, 5: MEM, 6: TEX, 7: NOP
system.gpu.shader_cores0.inst_counts::6             0                       # Inst counts: 1: ALU, 2: MAD, 3: CTRL, 4: SFU, 5: MEM, 6: TEX, 7: NOP
system.gpu.shader_cores0.inst_counts::7             0                       # Inst counts: 1: ALU, 2: MAD, 3: CTRL, 4: SFU, 5: MEM, 6: TEX, 7: NOP
system.gpu.shader_cores0.activeCycles          598741                       # Number of cycles this shader was executing a CTA
system.gpu.shader_cores0.notStalledCycles       448877                       # Number of cycles this shader was actually executing at least one instance
system.gpu.shader_cores0.instInstances       18101632                       # Total instructions executed by all PEs in the core
system.gpu.shader_cores0.instPerCycle       30.232825                       # Instruction instances per cycle
system.gpu.shader_cores0.kernels_completed            8                       # Number of kernels completed
system.gpu.shader_cores0.lsq.data_tlb.hits            0                       # Number of hits in this TLB
system.gpu.shader_cores0.lsq.data_tlb.misses            0                       # Number of misses in this TLB
system.gpu.shader_cores0.lsq.data_tlb.hitRate          nan                       # Hit rate for this TLB
system.gpu.shader_cores0.lsq.warpInstBufActive::samples    384764774                       # Histogram of number of active warp inst buffers at a given time
system.gpu.shader_cores0.lsq.warpInstBufActive::mean     3.419073                       # Histogram of number of active warp inst buffers at a given time
system.gpu.shader_cores0.lsq.warpInstBufActive::gmean          nan                       # Histogram of number of active warp inst buffers at a given time
system.gpu.shader_cores0.lsq.warpInstBufActive::stdev     6.056278                       # Histogram of number of active warp inst buffers at a given time
system.gpu.shader_cores0.lsq.warpInstBufActive::0   -217474415    -56.52%    -56.52% # Histogram of number of active warp inst buffers at a given time
system.gpu.shader_cores0.lsq.warpInstBufActive::1    324227239     84.27%     27.74% # Histogram of number of active warp inst buffers at a given time
system.gpu.shader_cores0.lsq.warpInstBufActive::2    188093554     48.89%     76.63% # Histogram of number of active warp inst buffers at a given time
system.gpu.shader_cores0.lsq.warpInstBufActive::3     64150668     16.67%     93.30% # Histogram of number of active warp inst buffers at a given time
system.gpu.shader_cores0.lsq.warpInstBufActive::4     13526914      3.52%     96.82% # Histogram of number of active warp inst buffers at a given time
system.gpu.shader_cores0.lsq.warpInstBufActive::5      2172080      0.56%     97.38% # Histogram of number of active warp inst buffers at a given time
system.gpu.shader_cores0.lsq.warpInstBufActive::6       493005      0.13%     97.51% # Histogram of number of active warp inst buffers at a given time
system.gpu.shader_cores0.lsq.warpInstBufActive::7       261507      0.07%     97.58% # Histogram of number of active warp inst buffers at a given time
system.gpu.shader_cores0.lsq.warpInstBufActive::8       192915      0.05%     97.63% # Histogram of number of active warp inst buffers at a given time
system.gpu.shader_cores0.lsq.warpInstBufActive::9       222924      0.06%     97.69% # Histogram of number of active warp inst buffers at a given time
system.gpu.shader_cores0.lsq.warpInstBufActive::10       132897      0.03%     97.72% # Histogram of number of active warp inst buffers at a given time
system.gpu.shader_cores0.lsq.warpInstBufActive::11       260078      0.07%     97.79% # Histogram of number of active warp inst buffers at a given time
system.gpu.shader_cores0.lsq.warpInstBufActive::12       202918      0.05%     97.84% # Histogram of number of active warp inst buffers at a given time
system.gpu.shader_cores0.lsq.warpInstBufActive::13       122894      0.03%     97.87% # Histogram of number of active warp inst buffers at a given time
system.gpu.shader_cores0.lsq.warpInstBufActive::14       138613      0.04%     97.91% # Histogram of number of active warp inst buffers at a given time
system.gpu.shader_cores0.lsq.warpInstBufActive::15        82882      0.02%     97.93% # Histogram of number of active warp inst buffers at a given time
system.gpu.shader_cores0.lsq.warpInstBufActive::16       280084      0.07%     98.00% # Histogram of number of active warp inst buffers at a given time
system.gpu.shader_cores0.lsq.warpInstBufActive::17        85740      0.02%     98.03% # Histogram of number of active warp inst buffers at a given time
system.gpu.shader_cores0.lsq.warpInstBufActive::18       147187      0.04%     98.07% # Histogram of number of active warp inst buffers at a given time
system.gpu.shader_cores0.lsq.warpInstBufActive::19       145758      0.04%     98.10% # Histogram of number of active warp inst buffers at a given time
system.gpu.shader_cores0.lsq.warpInstBufActive::20       148616      0.04%     98.14% # Histogram of number of active warp inst buffers at a given time
system.gpu.shader_cores0.lsq.warpInstBufActive::21       148616      0.04%     98.18% # Histogram of number of active warp inst buffers at a given time
system.gpu.shader_cores0.lsq.warpInstBufActive::22        97172      0.03%     98.21% # Histogram of number of active warp inst buffers at a given time
system.gpu.shader_cores0.lsq.warpInstBufActive::23       112891      0.03%     98.23% # Histogram of number of active warp inst buffers at a given time
system.gpu.shader_cores0.lsq.warpInstBufActive::24       215779      0.06%     98.29% # Histogram of number of active warp inst buffers at a given time
system.gpu.shader_cores0.lsq.warpInstBufActive::25       205776      0.05%     98.34% # Histogram of number of active warp inst buffers at a given time
system.gpu.shader_cores0.lsq.warpInstBufActive::26       222924      0.06%     98.40% # Histogram of number of active warp inst buffers at a given time
system.gpu.shader_cores0.lsq.warpInstBufActive::27       132897      0.03%     98.44% # Histogram of number of active warp inst buffers at a given time
system.gpu.shader_cores0.lsq.warpInstBufActive::28       118607      0.03%     98.47% # Histogram of number of active warp inst buffers at a given time
system.gpu.shader_cores0.lsq.warpInstBufActive::29       161477      0.04%     98.51% # Histogram of number of active warp inst buffers at a given time
system.gpu.shader_cores0.lsq.warpInstBufActive::30       121465      0.03%     98.54% # Histogram of number of active warp inst buffers at a given time
system.gpu.shader_cores0.lsq.warpInstBufActive::31       125752      0.03%     98.57% # Histogram of number of active warp inst buffers at a given time
system.gpu.shader_cores0.lsq.warpInstBufActive::32       281513      0.07%     98.65% # Histogram of number of active warp inst buffers at a given time
system.gpu.shader_cores0.lsq.warpInstBufActive::33       108604      0.03%     98.68% # Histogram of number of active warp inst buffers at a given time
system.gpu.shader_cores0.lsq.warpInstBufActive::34       104317      0.03%     98.70% # Histogram of number of active warp inst buffers at a given time
system.gpu.shader_cores0.lsq.warpInstBufActive::35       110033      0.03%     98.73% # Histogram of number of active warp inst buffers at a given time
system.gpu.shader_cores0.lsq.warpInstBufActive::36       138613      0.04%     98.77% # Histogram of number of active warp inst buffers at a given time
system.gpu.shader_cores0.lsq.warpInstBufActive::37       134326      0.03%     98.80% # Histogram of number of active warp inst buffers at a given time
system.gpu.shader_cores0.lsq.warpInstBufActive::38       190057      0.05%     98.85% # Histogram of number of active warp inst buffers at a given time
system.gpu.shader_cores0.lsq.warpInstBufActive::39       120036      0.03%     98.88% # Histogram of number of active warp inst buffers at a given time
system.gpu.shader_cores0.lsq.warpInstBufActive::40       108604      0.03%     98.91% # Histogram of number of active warp inst buffers at a given time
system.gpu.shader_cores0.lsq.warpInstBufActive::41       150045      0.04%     98.95% # Histogram of number of active warp inst buffers at a given time
system.gpu.shader_cores0.lsq.warpInstBufActive::42       278655      0.07%     99.02% # Histogram of number of active warp inst buffers at a given time
system.gpu.shader_cores0.lsq.warpInstBufActive::43       157190      0.04%     99.06% # Histogram of number of active warp inst buffers at a given time
system.gpu.shader_cores0.lsq.warpInstBufActive::44       160048      0.04%     99.10% # Histogram of number of active warp inst buffers at a given time
system.gpu.shader_cores0.lsq.warpInstBufActive::45       132897      0.03%     99.14% # Histogram of number of active warp inst buffers at a given time
system.gpu.shader_cores0.lsq.warpInstBufActive::46       162906      0.04%     99.18% # Histogram of number of active warp inst buffers at a given time
system.gpu.shader_cores0.lsq.warpInstBufActive::47       112891      0.03%     99.21% # Histogram of number of active warp inst buffers at a given time
system.gpu.shader_cores0.lsq.warpInstBufActive::48       114320      0.03%     99.24% # Histogram of number of active warp inst buffers at a given time
system.gpu.shader_cores0.lsq.warpInstBufActive::49       117178      0.03%     99.27% # Histogram of number of active warp inst buffers at a given time
system.gpu.shader_cores0.lsq.warpInstBufActive::50       172909      0.04%     99.32% # Histogram of number of active warp inst buffers at a given time
system.gpu.shader_cores0.lsq.warpInstBufActive::51       185770      0.05%     99.36% # Histogram of number of active warp inst buffers at a given time
system.gpu.shader_cores0.lsq.warpInstBufActive::52         8574      0.00%     99.37% # Histogram of number of active warp inst buffers at a given time
system.gpu.shader_cores0.lsq.warpInstBufActive::53         8574      0.00%     99.37% # Histogram of number of active warp inst buffers at a given time
system.gpu.shader_cores0.lsq.warpInstBufActive::54        10003      0.00%     99.37% # Histogram of number of active warp inst buffers at a given time
system.gpu.shader_cores0.lsq.warpInstBufActive::55        14290      0.00%     99.37% # Histogram of number of active warp inst buffers at a given time
system.gpu.shader_cores0.lsq.warpInstBufActive::56        17148      0.00%     99.38% # Histogram of number of active warp inst buffers at a given time
system.gpu.shader_cores0.lsq.warpInstBufActive::57        35725      0.01%     99.39% # Histogram of number of active warp inst buffers at a given time
system.gpu.shader_cores0.lsq.warpInstBufActive::58        42870      0.01%     99.40% # Histogram of number of active warp inst buffers at a given time
system.gpu.shader_cores0.lsq.warpInstBufActive::59        41441      0.01%     99.41% # Histogram of number of active warp inst buffers at a given time
system.gpu.shader_cores0.lsq.warpInstBufActive::60       105746      0.03%     99.44% # Histogram of number of active warp inst buffers at a given time
system.gpu.shader_cores0.lsq.warpInstBufActive::61        58589      0.02%     99.45% # Histogram of number of active warp inst buffers at a given time
system.gpu.shader_cores0.lsq.warpInstBufActive::62         7145      0.00%     99.46% # Histogram of number of active warp inst buffers at a given time
system.gpu.shader_cores0.lsq.warpInstBufActive::63       144329      0.04%     99.49% # Histogram of number of active warp inst buffers at a given time
system.gpu.shader_cores0.lsq.warpInstBufActive::64      1952014      0.51%    100.00% # Histogram of number of active warp inst buffers at a given time
system.gpu.shader_cores0.lsq.warpInstBufActive::total    384764774                       # Histogram of number of active warp inst buffers at a given time
system.gpu.shader_cores0.lsq.cacheAccesses     0.076160                       # Average number of concurrent outstanding cache accesses
system.gpu.shader_cores0.lsq.writebackBlockedCycles         7950                       # Number of cycles blocked for core writeback stage
system.gpu.shader_cores0.lsq.mshrHitQueued         1032                       # Number of hits on blocked lines in MSHRs
system.gpu.shader_cores0.lsq.mshrsFullCycles            0                       # Number of cycles stalled waiting for an MSHR
system.gpu.shader_cores0.lsq.mshrsFullCount            0                       # Number of times MSHRs filled
system.gpu.shader_cores0.lsq.warpCoalescedAccesses::samples        59283                       # Number of coalesced accesses per warp instruction
system.gpu.shader_cores0.lsq.warpCoalescedAccesses::mean     1.079753                       # Number of coalesced accesses per warp instruction
system.gpu.shader_cores0.lsq.warpCoalescedAccesses::gmean     1.026223                       # Number of coalesced accesses per warp instruction
system.gpu.shader_cores0.lsq.warpCoalescedAccesses::stdev     0.908084                       # Number of coalesced accesses per warp instruction
system.gpu.shader_cores0.lsq.warpCoalescedAccesses::0            0      0.00%      0.00% # Number of coalesced accesses per warp instruction
system.gpu.shader_cores0.lsq.warpCoalescedAccesses::1        58219     98.21%     98.21% # Number of coalesced accesses per warp instruction
system.gpu.shader_cores0.lsq.warpCoalescedAccesses::2          269      0.45%     98.66% # Number of coalesced accesses per warp instruction
system.gpu.shader_cores0.lsq.warpCoalescedAccesses::3          204      0.34%     99.00% # Number of coalesced accesses per warp instruction
system.gpu.shader_cores0.lsq.warpCoalescedAccesses::4          133      0.22%     99.23% # Number of coalesced accesses per warp instruction
system.gpu.shader_cores0.lsq.warpCoalescedAccesses::5           96      0.16%     99.39% # Number of coalesced accesses per warp instruction
system.gpu.shader_cores0.lsq.warpCoalescedAccesses::6          107      0.18%     99.57% # Number of coalesced accesses per warp instruction
system.gpu.shader_cores0.lsq.warpCoalescedAccesses::7           74      0.12%     99.69% # Number of coalesced accesses per warp instruction
system.gpu.shader_cores0.lsq.warpCoalescedAccesses::8           74      0.12%     99.82% # Number of coalesced accesses per warp instruction
system.gpu.shader_cores0.lsq.warpCoalescedAccesses::9            2      0.00%     99.82% # Number of coalesced accesses per warp instruction
system.gpu.shader_cores0.lsq.warpCoalescedAccesses::10            9      0.02%     99.84% # Number of coalesced accesses per warp instruction
system.gpu.shader_cores0.lsq.warpCoalescedAccesses::11           48      0.08%     99.92% # Number of coalesced accesses per warp instruction
system.gpu.shader_cores0.lsq.warpCoalescedAccesses::12            0      0.00%     99.92% # Number of coalesced accesses per warp instruction
system.gpu.shader_cores0.lsq.warpCoalescedAccesses::13            0      0.00%     99.92% # Number of coalesced accesses per warp instruction
system.gpu.shader_cores0.lsq.warpCoalescedAccesses::14            0      0.00%     99.92% # Number of coalesced accesses per warp instruction
system.gpu.shader_cores0.lsq.warpCoalescedAccesses::15            0      0.00%     99.92% # Number of coalesced accesses per warp instruction
system.gpu.shader_cores0.lsq.warpCoalescedAccesses::16            0      0.00%     99.92% # Number of coalesced accesses per warp instruction
system.gpu.shader_cores0.lsq.warpCoalescedAccesses::17            0      0.00%     99.92% # Number of coalesced accesses per warp instruction
system.gpu.shader_cores0.lsq.warpCoalescedAccesses::18            0      0.00%     99.92% # Number of coalesced accesses per warp instruction
system.gpu.shader_cores0.lsq.warpCoalescedAccesses::19            9      0.02%     99.93% # Number of coalesced accesses per warp instruction
system.gpu.shader_cores0.lsq.warpCoalescedAccesses::20            0      0.00%     99.93% # Number of coalesced accesses per warp instruction
system.gpu.shader_cores0.lsq.warpCoalescedAccesses::21            3      0.01%     99.94% # Number of coalesced accesses per warp instruction
system.gpu.shader_cores0.lsq.warpCoalescedAccesses::22            6      0.01%     99.95% # Number of coalesced accesses per warp instruction
system.gpu.shader_cores0.lsq.warpCoalescedAccesses::23            0      0.00%     99.95% # Number of coalesced accesses per warp instruction
system.gpu.shader_cores0.lsq.warpCoalescedAccesses::24            0      0.00%     99.95% # Number of coalesced accesses per warp instruction
system.gpu.shader_cores0.lsq.warpCoalescedAccesses::25            6      0.01%     99.96% # Number of coalesced accesses per warp instruction
system.gpu.shader_cores0.lsq.warpCoalescedAccesses::26            3      0.01%     99.96% # Number of coalesced accesses per warp instruction
system.gpu.shader_cores0.lsq.warpCoalescedAccesses::27            0      0.00%     99.96% # Number of coalesced accesses per warp instruction
system.gpu.shader_cores0.lsq.warpCoalescedAccesses::28            0      0.00%     99.96% # Number of coalesced accesses per warp instruction
system.gpu.shader_cores0.lsq.warpCoalescedAccesses::29            0      0.00%     99.96% # Number of coalesced accesses per warp instruction
system.gpu.shader_cores0.lsq.warpCoalescedAccesses::30            6      0.01%     99.97% # Number of coalesced accesses per warp instruction
system.gpu.shader_cores0.lsq.warpCoalescedAccesses::31           12      0.02%     99.99% # Number of coalesced accesses per warp instruction
system.gpu.shader_cores0.lsq.warpCoalescedAccesses::32            3      0.01%    100.00% # Number of coalesced accesses per warp instruction
system.gpu.shader_cores0.lsq.warpCoalescedAccesses::total        59283                       # Number of coalesced accesses per warp instruction
system.gpu.shader_cores0.lsq.warpLatencyRead::samples        58474                       # Latency in cycles for whole warp to finish the read
system.gpu.shader_cores0.lsq.warpLatencyRead::mean    11.727640                       # Latency in cycles for whole warp to finish the read
system.gpu.shader_cores0.lsq.warpLatencyRead::gmean    11.233085                       # Latency in cycles for whole warp to finish the read
system.gpu.shader_cores0.lsq.warpLatencyRead::stdev    26.140329                       # Latency in cycles for whole warp to finish the read
system.gpu.shader_cores0.lsq.warpLatencyRead::0-255        58454     99.97%     99.97% # Latency in cycles for whole warp to finish the read
system.gpu.shader_cores0.lsq.warpLatencyRead::256-511           12      0.02%     99.99% # Latency in cycles for whole warp to finish the read
system.gpu.shader_cores0.lsq.warpLatencyRead::512-767            0      0.00%     99.99% # Latency in cycles for whole warp to finish the read
system.gpu.shader_cores0.lsq.warpLatencyRead::768-1023            0      0.00%     99.99% # Latency in cycles for whole warp to finish the read
system.gpu.shader_cores0.lsq.warpLatencyRead::1024-1279            0      0.00%     99.99% # Latency in cycles for whole warp to finish the read
system.gpu.shader_cores0.lsq.warpLatencyRead::1280-1535            0      0.00%     99.99% # Latency in cycles for whole warp to finish the read
system.gpu.shader_cores0.lsq.warpLatencyRead::1536-1791            0      0.00%     99.99% # Latency in cycles for whole warp to finish the read
system.gpu.shader_cores0.lsq.warpLatencyRead::1792-2047            0      0.00%     99.99% # Latency in cycles for whole warp to finish the read
system.gpu.shader_cores0.lsq.warpLatencyRead::2048-2303            8      0.01%    100.00% # Latency in cycles for whole warp to finish the read
system.gpu.shader_cores0.lsq.warpLatencyRead::2304-2559            0      0.00%    100.00% # Latency in cycles for whole warp to finish the read
system.gpu.shader_cores0.lsq.warpLatencyRead::2560-2815            0      0.00%    100.00% # Latency in cycles for whole warp to finish the read
system.gpu.shader_cores0.lsq.warpLatencyRead::2816-3071            0      0.00%    100.00% # Latency in cycles for whole warp to finish the read
system.gpu.shader_cores0.lsq.warpLatencyRead::3072-3327            0      0.00%    100.00% # Latency in cycles for whole warp to finish the read
system.gpu.shader_cores0.lsq.warpLatencyRead::3328-3583            0      0.00%    100.00% # Latency in cycles for whole warp to finish the read
system.gpu.shader_cores0.lsq.warpLatencyRead::3584-3839            0      0.00%    100.00% # Latency in cycles for whole warp to finish the read
system.gpu.shader_cores0.lsq.warpLatencyRead::3840-4095            0      0.00%    100.00% # Latency in cycles for whole warp to finish the read
system.gpu.shader_cores0.lsq.warpLatencyRead::total        58474                       # Latency in cycles for whole warp to finish the read
system.gpu.shader_cores0.lsq.warpLatencyWrite::samples          758                       # Latency in cycles for whole warp to finish the write
system.gpu.shader_cores0.lsq.warpLatencyWrite::mean   213.927441                       # Latency in cycles for whole warp to finish the write
system.gpu.shader_cores0.lsq.warpLatencyWrite::gmean    44.797393                       # Latency in cycles for whole warp to finish the write
system.gpu.shader_cores0.lsq.warpLatencyWrite::stdev   386.918601                       # Latency in cycles for whole warp to finish the write
system.gpu.shader_cores0.lsq.warpLatencyWrite::0-127          565     74.54%     74.54% # Latency in cycles for whole warp to finish the write
system.gpu.shader_cores0.lsq.warpLatencyWrite::128-255           26      3.43%     77.97% # Latency in cycles for whole warp to finish the write
system.gpu.shader_cores0.lsq.warpLatencyWrite::256-383           17      2.24%     80.21% # Latency in cycles for whole warp to finish the write
system.gpu.shader_cores0.lsq.warpLatencyWrite::384-511           13      1.72%     81.93% # Latency in cycles for whole warp to finish the write
system.gpu.shader_cores0.lsq.warpLatencyWrite::512-639           11      1.45%     83.38% # Latency in cycles for whole warp to finish the write
system.gpu.shader_cores0.lsq.warpLatencyWrite::640-767           18      2.37%     85.75% # Latency in cycles for whole warp to finish the write
system.gpu.shader_cores0.lsq.warpLatencyWrite::768-895           38      5.01%     90.77% # Latency in cycles for whole warp to finish the write
system.gpu.shader_cores0.lsq.warpLatencyWrite::896-1023           20      2.64%     93.40% # Latency in cycles for whole warp to finish the write
system.gpu.shader_cores0.lsq.warpLatencyWrite::1024-1151           15      1.98%     95.38% # Latency in cycles for whole warp to finish the write
system.gpu.shader_cores0.lsq.warpLatencyWrite::1152-1279           15      1.98%     97.36% # Latency in cycles for whole warp to finish the write
system.gpu.shader_cores0.lsq.warpLatencyWrite::1280-1407            8      1.06%     98.42% # Latency in cycles for whole warp to finish the write
system.gpu.shader_cores0.lsq.warpLatencyWrite::1408-1535            6      0.79%     99.21% # Latency in cycles for whole warp to finish the write
system.gpu.shader_cores0.lsq.warpLatencyWrite::1536-1663            2      0.26%     99.47% # Latency in cycles for whole warp to finish the write
system.gpu.shader_cores0.lsq.warpLatencyWrite::1664-1791            1      0.13%     99.60% # Latency in cycles for whole warp to finish the write
system.gpu.shader_cores0.lsq.warpLatencyWrite::1792-1919            2      0.26%     99.87% # Latency in cycles for whole warp to finish the write
system.gpu.shader_cores0.lsq.warpLatencyWrite::1920-2047            1      0.13%    100.00% # Latency in cycles for whole warp to finish the write
system.gpu.shader_cores0.lsq.warpLatencyWrite::total          758                       # Latency in cycles for whole warp to finish the write
system.gpu.shader_cores0.lsq.warpLatencyFence::samples          573                       # Latency in cycles for whole warp to finish the fence
system.gpu.shader_cores0.lsq.warpLatencyFence::mean     8.127400                       # Latency in cycles for whole warp to finish the fence
system.gpu.shader_cores0.lsq.warpLatencyFence::gmean     6.372846                       # Latency in cycles for whole warp to finish the fence
system.gpu.shader_cores0.lsq.warpLatencyFence::stdev    20.494401                       # Latency in cycles for whole warp to finish the fence
system.gpu.shader_cores0.lsq.warpLatencyFence::0-31          566     98.78%     98.78% # Latency in cycles for whole warp to finish the fence
system.gpu.shader_cores0.lsq.warpLatencyFence::32-63            3      0.52%     99.30% # Latency in cycles for whole warp to finish the fence
system.gpu.shader_cores0.lsq.warpLatencyFence::64-95            0      0.00%     99.30% # Latency in cycles for whole warp to finish the fence
system.gpu.shader_cores0.lsq.warpLatencyFence::96-127            0      0.00%     99.30% # Latency in cycles for whole warp to finish the fence
system.gpu.shader_cores0.lsq.warpLatencyFence::128-159            0      0.00%     99.30% # Latency in cycles for whole warp to finish the fence
system.gpu.shader_cores0.lsq.warpLatencyFence::160-191            0      0.00%     99.30% # Latency in cycles for whole warp to finish the fence
system.gpu.shader_cores0.lsq.warpLatencyFence::192-223            0      0.00%     99.30% # Latency in cycles for whole warp to finish the fence
system.gpu.shader_cores0.lsq.warpLatencyFence::224-255            3      0.52%     99.83% # Latency in cycles for whole warp to finish the fence
system.gpu.shader_cores0.lsq.warpLatencyFence::256-287            1      0.17%    100.00% # Latency in cycles for whole warp to finish the fence
system.gpu.shader_cores0.lsq.warpLatencyFence::288-319            0      0.00%    100.00% # Latency in cycles for whole warp to finish the fence
system.gpu.shader_cores0.lsq.warpLatencyFence::320-351            0      0.00%    100.00% # Latency in cycles for whole warp to finish the fence
system.gpu.shader_cores0.lsq.warpLatencyFence::352-383            0      0.00%    100.00% # Latency in cycles for whole warp to finish the fence
system.gpu.shader_cores0.lsq.warpLatencyFence::384-415            0      0.00%    100.00% # Latency in cycles for whole warp to finish the fence
system.gpu.shader_cores0.lsq.warpLatencyFence::416-447            0      0.00%    100.00% # Latency in cycles for whole warp to finish the fence
system.gpu.shader_cores0.lsq.warpLatencyFence::448-479            0      0.00%    100.00% # Latency in cycles for whole warp to finish the fence
system.gpu.shader_cores0.lsq.warpLatencyFence::480-511            0      0.00%    100.00% # Latency in cycles for whole warp to finish the fence
system.gpu.shader_cores0.lsq.warpLatencyFence::total          573                       # Latency in cycles for whole warp to finish the fence
system.gpu.shader_cores0.lsq.warpLatencyAtomic::samples           51                       # Latency in cycles for whole warp to finish the atomic
system.gpu.shader_cores0.lsq.warpLatencyAtomic::mean  1333.823529                       # Latency in cycles for whole warp to finish the atomic
system.gpu.shader_cores0.lsq.warpLatencyAtomic::gmean   887.352869                       # Latency in cycles for whole warp to finish the atomic
system.gpu.shader_cores0.lsq.warpLatencyAtomic::stdev   776.583278                       # Latency in cycles for whole warp to finish the atomic
system.gpu.shader_cores0.lsq.warpLatencyAtomic::0-255            6     11.76%     11.76% # Latency in cycles for whole warp to finish the atomic
system.gpu.shader_cores0.lsq.warpLatencyAtomic::256-511            5      9.80%     21.57% # Latency in cycles for whole warp to finish the atomic
system.gpu.shader_cores0.lsq.warpLatencyAtomic::512-767            3      5.88%     27.45% # Latency in cycles for whole warp to finish the atomic
system.gpu.shader_cores0.lsq.warpLatencyAtomic::768-1023            5      9.80%     37.25% # Latency in cycles for whole warp to finish the atomic
system.gpu.shader_cores0.lsq.warpLatencyAtomic::1024-1279            4      7.84%     45.10% # Latency in cycles for whole warp to finish the atomic
system.gpu.shader_cores0.lsq.warpLatencyAtomic::1280-1535            5      9.80%     54.90% # Latency in cycles for whole warp to finish the atomic
system.gpu.shader_cores0.lsq.warpLatencyAtomic::1536-1791            4      7.84%     62.75% # Latency in cycles for whole warp to finish the atomic
system.gpu.shader_cores0.lsq.warpLatencyAtomic::1792-2047            5      9.80%     72.55% # Latency in cycles for whole warp to finish the atomic
system.gpu.shader_cores0.lsq.warpLatencyAtomic::2048-2303           10     19.61%     92.16% # Latency in cycles for whole warp to finish the atomic
system.gpu.shader_cores0.lsq.warpLatencyAtomic::2304-2559            4      7.84%    100.00% # Latency in cycles for whole warp to finish the atomic
system.gpu.shader_cores0.lsq.warpLatencyAtomic::2560-2815            0      0.00%    100.00% # Latency in cycles for whole warp to finish the atomic
system.gpu.shader_cores0.lsq.warpLatencyAtomic::2816-3071            0      0.00%    100.00% # Latency in cycles for whole warp to finish the atomic
system.gpu.shader_cores0.lsq.warpLatencyAtomic::3072-3327            0      0.00%    100.00% # Latency in cycles for whole warp to finish the atomic
system.gpu.shader_cores0.lsq.warpLatencyAtomic::3328-3583            0      0.00%    100.00% # Latency in cycles for whole warp to finish the atomic
system.gpu.shader_cores0.lsq.warpLatencyAtomic::3584-3839            0      0.00%    100.00% # Latency in cycles for whole warp to finish the atomic
system.gpu.shader_cores0.lsq.warpLatencyAtomic::3840-4095            0      0.00%    100.00% # Latency in cycles for whole warp to finish the atomic
system.gpu.shader_cores0.lsq.warpLatencyAtomic::total           51                       # Latency in cycles for whole warp to finish the atomic
system.gpu.shader_cores0.lsq.tlbMissLatency::samples            0                       # Latency in cycles for TLB miss
system.gpu.shader_cores0.lsq.tlbMissLatency::mean          nan                       # Latency in cycles for TLB miss
system.gpu.shader_cores0.lsq.tlbMissLatency::gmean          nan                       # Latency in cycles for TLB miss
system.gpu.shader_cores0.lsq.tlbMissLatency::stdev          nan                       # Latency in cycles for TLB miss
system.gpu.shader_cores0.lsq.tlbMissLatency::0            0                       # Latency in cycles for TLB miss
system.gpu.shader_cores0.lsq.tlbMissLatency::1            0                       # Latency in cycles for TLB miss
system.gpu.shader_cores0.lsq.tlbMissLatency::2            0                       # Latency in cycles for TLB miss
system.gpu.shader_cores0.lsq.tlbMissLatency::3            0                       # Latency in cycles for TLB miss
system.gpu.shader_cores0.lsq.tlbMissLatency::4            0                       # Latency in cycles for TLB miss
system.gpu.shader_cores0.lsq.tlbMissLatency::5            0                       # Latency in cycles for TLB miss
system.gpu.shader_cores0.lsq.tlbMissLatency::6            0                       # Latency in cycles for TLB miss
system.gpu.shader_cores0.lsq.tlbMissLatency::7            0                       # Latency in cycles for TLB miss
system.gpu.shader_cores0.lsq.tlbMissLatency::8            0                       # Latency in cycles for TLB miss
system.gpu.shader_cores0.lsq.tlbMissLatency::9            0                       # Latency in cycles for TLB miss
system.gpu.shader_cores0.lsq.tlbMissLatency::10            0                       # Latency in cycles for TLB miss
system.gpu.shader_cores0.lsq.tlbMissLatency::11            0                       # Latency in cycles for TLB miss
system.gpu.shader_cores0.lsq.tlbMissLatency::12            0                       # Latency in cycles for TLB miss
system.gpu.shader_cores0.lsq.tlbMissLatency::13            0                       # Latency in cycles for TLB miss
system.gpu.shader_cores0.lsq.tlbMissLatency::14            0                       # Latency in cycles for TLB miss
system.gpu.shader_cores0.lsq.tlbMissLatency::15            0                       # Latency in cycles for TLB miss
system.gpu.shader_cores0.lsq.tlbMissLatency::total            0                       # Latency in cycles for TLB miss
system.gpu.shader_cores1.itb.hits                   0                       # Number of hits in this TLB
system.gpu.shader_cores1.itb.misses                 0                       # Number of misses in this TLB
system.gpu.shader_cores1.itb.hitRate              nan                       # Hit rate for this TLB
system.gpu.shader_cores1.local_loads                0                       # Number of loads from local space
system.gpu.shader_cores1.local_stores               0                       # Number of stores to local space
system.gpu.shader_cores1.shared_loads          283767                       # Number of loads from shared space
system.gpu.shader_cores1.shared_stores          27116                       # Number of stores to shared space
system.gpu.shader_cores1.param_kernel_loads       575845                       # Number of loads from kernel parameter space
system.gpu.shader_cores1.param_local_loads            0                       # Number of loads from local parameter space
system.gpu.shader_cores1.param_local_stores            0                       # Number of stores to local parameter space
system.gpu.shader_cores1.const_loads                0                       # Number of loads from constant space
system.gpu.shader_cores1.tex_loads                  0                       # Number of loads from texture space
system.gpu.shader_cores1.global_loads         1407821                       # Number of loads from global space
system.gpu.shader_cores1.global_stores           8549                       # Number of stores to global space
system.gpu.shader_cores1.surf_loads                 0                       # Number of loads from surface space
system.gpu.shader_cores1.generic_loads              0                       # Number of loads from generic spaces (global, shared, local)
system.gpu.shader_cores1.generic_stores             0                       # Number of stores to generic spaces (global, shared, local)
system.gpu.shader_cores1.inst_cache_requests           58                       # Number of instruction cache requests sent
system.gpu.shader_cores1.inst_cache_retries            0                       # Number of instruction cache retries
system.gpu.shader_cores1.inst_counts::0             0                       # Inst counts: 1: ALU, 2: MAD, 3: CTRL, 4: SFU, 5: MEM, 6: TEX, 7: NOP
system.gpu.shader_cores1.inst_counts::1       8849743                       # Inst counts: 1: ALU, 2: MAD, 3: CTRL, 4: SFU, 5: MEM, 6: TEX, 7: NOP
system.gpu.shader_cores1.inst_counts::2       1422051                       # Inst counts: 1: ALU, 2: MAD, 3: CTRL, 4: SFU, 5: MEM, 6: TEX, 7: NOP
[...]
system.ruby.L1Cache_Controller.Data_all_Acks::total        13052                      
system.ruby.L1Cache_Controller.Ack       |           2      0.19%      0.19% |         151     14.15%     14.34% |          94      8.81%     23.15% |         515     48.27%     71.42% |         250     23.43%     94.85% |           0      0.00%     94.85% |          55      5.15%    100.00%
system.ruby.L1Cache_Controller.Ack::total         1067                      
system.ruby.L1Cache_Controller.Ack_all   |           2      0.27%      0.27% |         114     15.62%     15.89% |          71      9.73%     25.62% |         307     42.05%     67.67% |         209     28.63%     96.30% |           0      0.00%     96.30% |          27      3.70%    100.00%
system.ruby.L1Cache_Controller.Ack_all::total          730                      
system.ruby.L1Cache_Controller.WB_Ack    |        1240     41.51%     41.51% |         256      8.57%     50.08% |         208      6.96%     57.05% |         439     14.70%     71.74% |         267      8.94%     80.68% |           0      0.00%     80.68% |         577     19.32%    100.00%
system.ruby.L1Cache_Controller.WB_Ack::total         2987                      
system.ruby.L1Cache_Controller.NP.Load   |        1336     15.16%     15.16% |        1357     15.40%     30.56% |        1866     21.18%     51.74% |        2157     24.48%     76.22% |        1671     18.96%     95.19% |           0      0.00%     95.19% |         424      4.81%    100.00%
system.ruby.L1Cache_Controller.NP.Load::total         8811                      
system.ruby.L1Cache_Controller.NP.Ifetch |        1094     81.58%     81.58% |          50      3.73%     85.31% |          58      4.33%     89.63% |          74      5.52%     95.15% |          65      4.85%    100.00% |           0      0.00%    100.00% |           0      0.00%    100.00%
system.ruby.L1Cache_Controller.NP.Ifetch::total         1341                      
system.ruby.L1Cache_Controller.NP.Store  |         433     13.55%     13.55% |         461     14.43%     27.98% |         511     15.99%     43.97% |         781     24.44%     68.42% |         586     18.34%     86.76% |           0      0.00%     86.76% |         423     13.24%    100.00%
system.ruby.L1Cache_Controller.NP.Store::total         3195                      
system.ruby.L1Cache_Controller.NP.Inv    |           0      0.00%      0.00% |          42     38.18%     38.18% |          19     17.27%     55.45% |          20     18.18%     73.64% |          28     25.45%     99.09% |           0      0.00%     99.09% |           1      0.91%    100.00%
system.ruby.L1Cache_Controller.NP.Inv::total          110                      
system.ruby.L1Cache_Controller.I.Load    |          15      1.80%      1.80% |         102     12.26%     14.06% |         150     18.03%     32.09% |         318     38.22%     70.31% |         247     29.69%    100.00% |           0      0.00%    100.00% |           0      0.00%    100.00%
system.ruby.L1Cache_Controller.I.Load::total          832                      
system.ruby.L1Cache_Controller.I.Store   |           0      0.00%      0.00% |         358     17.53%     17.53% |         368     18.02%     35.55% |         639     31.29%     66.85% |         677     33.15%    100.00% |           0      0.00%    100.00% |           0      0.00%    100.00%
system.ruby.L1Cache_Controller.I.Store::total         2042                      
system.ruby.L1Cache_Controller.I.L1_Replacement |          17      4.21%      4.21% |          53     13.12%     17.33% |          93     23.02%     40.35% |          94     23.27%     63.61% |         139     34.41%     98.02% |           0      0.00%     98.02% |           8      1.98%    100.00%
system.ruby.L1Cache_Controller.I.L1_Replacement::total          404                      
system.ruby.L1Cache_Controller.S.Load    |          31      0.02%      0.02% |       59032     29.20%     29.21% |       44932     22.22%     51.43% |       41341     20.45%     71.88% |       56859     28.12%    100.00% |           0      0.00%    100.00% |           0      0.00%    100.00%
system.ruby.L1Cache_Controller.S.Load::total       202195                      
system.ruby.L1Cache_Controller.S.Ifetch  |     2359857    100.00%    100.00% |           0      0.00%    100.00% |           0      0.00%    100.00% |           0      0.00%    100.00% |           0      0.00%    100.00% |           0      0.00%    100.00% |           0      0.00%    100.00%
system.ruby.L1Cache_Controller.S.Ifetch::total      2359857                      
system.ruby.L1Cache_Controller.S.Store   |           2      0.30%      0.30% |         101     14.94%     15.24% |          55      8.14%     23.37% |         311     46.01%     69.38% |         207     30.62%    100.00% |           0      0.00%    100.00% |           0      0.00%    100.00%
system.ruby.L1Cache_Controller.S.Store::total          676                      
system.ruby.L1Cache_Controller.S.Inv     |          82      8.11%      8.11% |         163     16.12%     24.23% |         202     19.98%     44.21% |         232     22.95%     67.16% |         323     31.95%     99.11% |           0      0.00%     99.11% |           9      0.89%    100.00%
system.ruby.L1Cache_Controller.S.Inv::total         1011                      
system.ruby.L1Cache_Controller.S.L1_Replacement |         850     11.40%     11.40% |        1183     15.87%     27.27% |        1662     22.30%     49.57% |        1987     26.66%     76.23% |        1518     20.36%     96.59% |           0      0.00%     96.59% |         254      3.41%    100.00%
system.ruby.L1Cache_Controller.S.L1_Replacement::total         7454                      
system.ruby.L1Cache_Controller.E.Load    |      137712     99.42%     99.42% |          26      0.02%     99.44% |         522      0.38%     99.82% |         132      0.10%     99.91% |         123      0.09%    100.00% |           0      0.00%    100.00% |           0      0.00%    100.00%
system.ruby.L1Cache_Controller.E.Load::total       138515                      
system.ruby.L1Cache_Controller.E.Store   |          72     59.50%     59.50% |           0      0.00%     59.50% |           1      0.83%     60.33% |          48     39.67%    100.00% |           0      0.00%    100.00% |           0      0.00%    100.00% |           0      0.00%    100.00%
system.ruby.L1Cache_Controller.E.Store::total          121                      
system.ruby.L1Cache_Controller.E.L1_Replacement |         895     79.70%     79.70% |           0      0.00%     79.70% |           9      0.80%     80.50% |          43      3.83%     84.33% |           0      0.00%     84.33% |           0      0.00%     84.33% |         176     15.67%    100.00%
system.ruby.L1Cache_Controller.E.L1_Replacement::total         1123                      
system.ruby.L1Cache_Controller.E.Fwd_GETX |           7     77.78%     77.78% |           2     22.22%    100.00% |           0      0.00%    100.00% |           0      0.00%    100.00% |           0      0.00%    100.00% |           0      0.00%    100.00% |           0      0.00%    100.00%
system.ruby.L1Cache_Controller.E.Fwd_GETX::total            9                      
system.ruby.L1Cache_Controller.E.Fwd_GETS |           1      0.57%      0.57% |           9      5.14%      5.71% |          40     22.86%     28.57% |          70     40.00%     68.57% |          55     31.43%    100.00% |           0      0.00%    100.00% |           0      0.00%    100.00%
system.ruby.L1Cache_Controller.E.Fwd_GETS::total          175                      
system.ruby.L1Cache_Controller.M.Load    |      168051     96.78%     96.78% |         683      0.39%     97.17% |        1447      0.83%     98.00% |        2164      1.25%     99.25% |        1303      0.75%    100.00% |           0      0.00%    100.00% |           0      0.00%    100.00%
system.ruby.L1Cache_Controller.M.Load::total       173648                      
system.ruby.L1Cache_Controller.M.Store   |      170332     94.51%     94.51% |        1891      1.05%     95.56% |        2036      1.13%     96.69% |        2843      1.58%     98.27% |        3115      1.73%    100.00% |           0      0.00%    100.00% |           0      0.00%    100.00%
system.ruby.L1Cache_Controller.M.Store::total       180217                      
system.ruby.L1Cache_Controller.M.L1_Replacement |         345     18.51%     18.51% |         256     13.73%     32.24% |         199     10.68%     42.92% |         396     21.24%     64.16% |         267     14.32%     78.49% |           0      0.00%     78.49% |         401     21.51%    100.00%
system.ruby.L1Cache_Controller.M.L1_Replacement::total         1864                      
system.ruby.L1Cache_Controller.M.Fwd_GETX |           1      0.04%      0.04% |         486     17.72%     17.75% |         576     21.00%     38.75% |         828     30.19%     68.94% |         852     31.06%    100.00% |           0      0.00%    100.00% |           0      0.00%    100.00%
system.ruby.L1Cache_Controller.M.Fwd_GETX::total         2743                      
system.ruby.L1Cache_Controller.M.Fwd_GETS |          79      6.91%      6.91% |         176     15.40%     22.31% |          69      6.04%     28.35% |         466     40.77%     69.12% |         338     29.57%     98.69% |           0      0.00%     98.69% |          15      1.31%    100.00%
system.ruby.L1Cache_Controller.M.Fwd_GETS::total         1143                      
system.ruby.L1Cache_Controller.IS.L1_Replacement |           0      0.00%      0.00% |           0      0.00%      0.00% |           0      0.00%      0.00% |           2      0.10%      0.10% |           0      0.00%      0.10% |           0      0.00%      0.10% |        2064     99.90%    100.00%
system.ruby.L1Cache_Controller.IS.L1_Replacement::total         2066                      
system.ruby.L1Cache_Controller.IS.Data_Exclusive |        1344     74.79%     74.79% |          11      0.61%     75.40% |          50      2.78%     78.19% |         161      8.96%     87.15% |          55      3.06%     90.21% |           0      0.00%     90.21% |         176      9.79%    100.00%
system.ruby.L1Cache_Controller.IS.Data_Exclusive::total         1797                      
system.ruby.L1Cache_Controller.IS.DataS_fromL1 |           7      0.53%      0.53% |         162     12.29%     12.82% |         203     15.40%     28.22% |         397     30.12%     58.35% |         307     23.29%     81.64% |           0      0.00%     81.64% |         242     18.36%    100.00%
system.ruby.L1Cache_Controller.IS.DataS_fromL1::total         1318                      
system.ruby.L1Cache_Controller.IS.Data_all_Acks |        1094     13.90%     13.90% |        1336     16.98%     30.88% |        1821     23.14%     54.02% |        1991     25.30%     79.32% |        1621     20.60%     99.92% |           0      0.00%     99.92% |           6      0.08%    100.00%
system.ruby.L1Cache_Controller.IS.Data_all_Acks::total         7869                      
system.ruby.L1Cache_Controller.IM.L1_Replacement |           0      0.00%      0.00% |          59      4.69%      4.69% |          78      6.21%     10.90% |          64      5.09%     15.99% |          59      4.69%     20.68% |           0      0.00%     20.68% |         997     79.32%    100.00%
system.ruby.L1Cache_Controller.IM.L1_Replacement::total         1257                      
system.ruby.L1Cache_Controller.IM.Data   |           0      0.00%      0.00% |          14     19.72%     19.72% |          16     22.54%     42.25% |           4      5.63%     47.89% |          10     14.08%     61.97% |           0      0.00%     61.97% |          27     38.03%    100.00%
system.ruby.L1Cache_Controller.IM.Data::total           71                      
system.ruby.L1Cache_Controller.IM.Data_all_Acks |         433      8.35%      8.35% |         806     15.55%     23.91% |         863     16.65%     40.56% |        1424     27.47%     68.03% |        1261     24.33%     92.36% |           0      0.00%     92.36% |         396      7.64%    100.00%
system.ruby.L1Cache_Controller.IM.Data_all_Acks::total         5183                      
system.ruby.L1Cache_Controller.IM.Ack    |           0      0.00%      0.00% |           2      3.51%      3.51% |           0      0.00%      3.51% |           0      0.00%      3.51% |           0      0.00%      3.51% |           0      0.00%      3.51% |          55     96.49%    100.00%
system.ruby.L1Cache_Controller.IM.Ack::total           57                      
system.ruby.L1Cache_Controller.SM.Inv    |           0      0.00%      0.00% |           1      5.88%      5.88% |           0      0.00%      5.88% |           8     47.06%     52.94% |           8     47.06%    100.00% |           0      0.00%    100.00% |           0      0.00%    100.00%
system.ruby.L1Cache_Controller.SM.Inv::total           17                      
system.ruby.L1Cache_Controller.SM.L1_Replacement |           0      0.00%      0.00% |           0      0.00%      0.00% |           0      0.00%      0.00% |           2     28.57%     28.57% |           0      0.00%     28.57% |           0      0.00%     28.57% |           5     71.43%    100.00%
system.ruby.L1Cache_Controller.SM.L1_Replacement::total            7                      
system.ruby.L1Cache_Controller.SM.Ack    |           2      0.20%      0.20% |         149     14.75%     14.95% |          94      9.31%     24.26% |         515     50.99%     75.25% |         250     24.75%    100.00% |           0      0.00%    100.00% |           0      0.00%    100.00%
system.ruby.L1Cache_Controller.SM.Ack::total         1010                      
system.ruby.L1Cache_Controller.SM.Ack_all |           2      0.27%      0.27% |         114     15.62%     15.89% |          71      9.73%     25.62% |         307     42.05%     67.67% |         209     28.63%     96.30% |           0      0.00%     96.30% |          27      3.70%    100.00%
system.ruby.L1Cache_Controller.SM.Ack_all::total          730                      
system.ruby.L1Cache_Controller.M_I.Ifetch |           1    100.00%    100.00% |           0      0.00%    100.00% |           0      0.00%    100.00% |           0      0.00%    100.00% |           0      0.00%    100.00% |           0      0.00%    100.00% |           0      0.00%    100.00%
system.ruby.L1Cache_Controller.M_I.Ifetch::total            1                      
system.ruby.L1Cache_Controller.M_I.Store |           0      0.00%      0.00% |           0      0.00%      0.00% |           0      0.00%      0.00% |           5    100.00%    100.00% |           0      0.00%    100.00% |           0      0.00%    100.00% |           0      0.00%    100.00%
system.ruby.L1Cache_Controller.M_I.Store::total            5                      
system.ruby.L1Cache_Controller.M_I.Fwd_GETX |           0      0.00%      0.00% |           0      0.00%      0.00% |           0      0.00%      0.00% |           1    100.00%    100.00% |           0      0.00%    100.00% |           0      0.00%    100.00% |           0      0.00%    100.00%
system.ruby.L1Cache_Controller.M_I.Fwd_GETX::total            1                      
system.ruby.L1Cache_Controller.M_I.WB_Ack |        1240     41.53%     41.53% |         256      8.57%     50.10% |         208      6.97%     57.07% |         438     14.67%     71.73% |         267      8.94%     80.68% |           0      0.00%     80.68% |         577     19.32%    100.00%
system.ruby.L1Cache_Controller.M_I.WB_Ack::total         2986                      
system.ruby.L1Cache_Controller.SINK_WB_ACK.WB_Ack |           0      0.00%      0.00% |           0      0.00%      0.00% |           0      0.00%      0.00% |           1    100.00%    100.00% |           0      0.00%    100.00% |           0      0.00%    100.00% |           0      0.00%    100.00%
system.ruby.L1Cache_Controller.SINK_WB_ACK.WB_Ack::total            1                      
system.ruby.L2Cache_Controller.L1_GET_INSTR         1341      0.00%      0.00%
system.ruby.L2Cache_Controller.L1_GETS           9691      0.00%      0.00%
system.ruby.L2Cache_Controller.L1_GETX           5849      0.00%      0.00%
system.ruby.L2Cache_Controller.L1_UPGRADE          677      0.00%      0.00%
system.ruby.L2Cache_Controller.L1_PUTX           2987      0.00%      0.00%
system.ruby.L2Cache_Controller.L1_PUTX_old            1      0.00%      0.00%
system.ruby.L2Cache_Controller.Mem_Data          2820      0.00%      0.00%
system.ruby.L2Cache_Controller.WB_Data           1143      0.00%      0.00%
system.ruby.L2Cache_Controller.WB_Data_clean          175      0.00%      0.00%
system.ruby.L2Cache_Controller.Unblock           1318      0.00%      0.00%
system.ruby.L2Cache_Controller.Exclusive_Unblock         7710      0.00%      0.00%
system.ruby.L2Cache_Controller.NP.L1_GET_INSTR          637      0.00%      0.00%
system.ruby.L2Cache_Controller.NP.L1_GETS          636      0.00%      0.00%
system.ruby.L2Cache_Controller.NP.L1_GETX         1547      0.00%      0.00%
system.ruby.L2Cache_Controller.SS.L1_GET_INSTR          603      0.00%      0.00%
system.ruby.L2Cache_Controller.SS.L1_GETS         6528      0.00%      0.00%
system.ruby.L2Cache_Controller.SS.L1_GETX          127      0.00%      0.00%
system.ruby.L2Cache_Controller.SS.L1_UPGRADE          659      0.00%      0.00%
system.ruby.L2Cache_Controller.M.L1_GET_INSTR            5      0.00%      0.00%
system.ruby.L2Cache_Controller.M.L1_GETS         1161      0.00%      0.00%
system.ruby.L2Cache_Controller.M.L1_GETX          827      0.00%      0.00%
system.ruby.L2Cache_Controller.MT.L1_GETS         1318      0.00%      0.00%
system.ruby.L2Cache_Controller.MT.L1_GETX         2753      0.00%      0.00%
system.ruby.L2Cache_Controller.MT.L1_PUTX         2986      0.00%      0.00%
system.ruby.L2Cache_Controller.MT.L1_PUTX_old            1      0.00%      0.00%
system.ruby.L2Cache_Controller.ISS.Mem_Data          636      0.00%      0.00%
system.ruby.L2Cache_Controller.IS.L1_GET_INSTR           96      0.00%      0.00%
system.ruby.L2Cache_Controller.IS.Mem_Data          637      0.00%      0.00%
system.ruby.L2Cache_Controller.IM.Mem_Data         1547      0.00%      0.00%
system.ruby.L2Cache_Controller.SS_MB.L1_GETS            9      0.00%      0.00%
system.ruby.L2Cache_Controller.SS_MB.L1_GETX            8      0.00%      0.00%
system.ruby.L2Cache_Controller.SS_MB.L1_UPGRADE           17      0.00%      0.00%
system.ruby.L2Cache_Controller.SS_MB.Exclusive_Unblock          786      0.00%      0.00%
system.ruby.L2Cache_Controller.MT_MB.L1_GETS            5      0.00%      0.00%
system.ruby.L2Cache_Controller.MT_MB.L1_GETX          583      0.00%      0.00%
system.ruby.L2Cache_Controller.MT_MB.L1_PUTX            1      0.00%      0.00%
system.ruby.L2Cache_Controller.MT_MB.Exclusive_Unblock         6924      0.00%      0.00%
system.ruby.L2Cache_Controller.MT_IIB.L1_GETS           33      0.00%      0.00%
system.ruby.L2Cache_Controller.MT_IIB.L1_GETX            4      0.00%      0.00%
system.ruby.L2Cache_Controller.MT_IIB.L1_UPGRADE            1      0.00%      0.00%
system.ruby.L2Cache_Controller.MT_IIB.WB_Data          147      0.00%      0.00%
system.ruby.L2Cache_Controller.MT_IIB.WB_Data_clean            9      0.00%      0.00%
system.ruby.L2Cache_Controller.MT_IIB.Unblock         1162      0.00%      0.00%
system.ruby.L2Cache_Controller.MT_IB.L1_GETS            1      0.00%      0.00%
system.ruby.L2Cache_Controller.MT_IB.WB_Data          996      0.00%      0.00%
system.ruby.L2Cache_Controller.MT_IB.WB_Data_clean          166      0.00%      0.00%
system.ruby.L2Cache_Controller.MT_SB.Unblock          156      0.00%      0.00%

---------- End Simulation Statistics   ----------
