
---------- Begin Simulation Statistics ----------
sim_seconds                                  0.003963                       # Number of seconds simulated
sim_ticks                                  3963476000                       # Number of ticks simulated
final_tick                                 3963476000                       # Number of ticks from beginning of simulation (restored from checkpoints and never reset)
sim_freq                                 1000000000000                       # Frequency of simulated ticks
host_inst_rate                                  17721                       # Simulator instruction rate (inst/s)
host_op_rate                                    29158                       # Simulator op (including micro ops) rate (op/s)
host_tick_rate                               42428045                       # Simulator tick rate (ticks/s)
host_mem_usage                                4519108                       # Number of bytes of host memory used
host_seconds                                    93.42                       # Real time elapsed on the host
sim_insts                                     1655432                       # Number of instructions simulated
sim_ops                                       2723817                       # Number of ops (including micro ops) simulated
system.voltage_domain.voltage                       1                       # Voltage in Volts
system.clk_domain.clock                          1000                       # Clock period in ticks
system.mem_ctrls.clk_domain.clock                2500                       # Clock period in ticks
system.mem_ctrls.bytes_read::ruby.dir_cntrl0       360960                       # Number of bytes read from this memory
system.mem_ctrls.bytes_read::total             360960                       # Number of bytes read from this memory
system.mem_ctrls.num_reads::ruby.dir_cntrl0         2820                       # Number of read requests responded to by this memory
system.mem_ctrls.num_reads::total                2820                       # Number of read requests responded to by this memory
system.mem_ctrls.bw_read::ruby.dir_cntrl0     91071575                       # Total read bandwidth from this memory (bytes/s)
system.mem_ctrls.bw_read::total              91071575                       # Total read bandwidth from this memory (bytes/s)
system.mem_ctrls.bw_total::ruby.dir_cntrl0     91071575                       # Total bandwidth to/from this memory (bytes/s)
system.mem_ctrls.bw_total::total             91071575                       # Total bandwidth to/from this memory (bytes/s)
system.mem_ctrls.memReq                          2820                       # Total number of memory requests
system.mem_ctrls.memRead                         2820                       # Number of memory reads
system.mem_ctrls.memRefresh                     11043                       # Number of memory refreshes
system.mem_ctrls.memWaitCycles                  24613                       # Delay stalled at the head of the bank queue
system.mem_ctrls.memInputQ                      17345                       # Delay in the input queue
system.mem_ctrls.memBankQ                       77446                       # Delay behind the head of the bank queue
system.mem_ctrls.totalStalls                   119404                       # Total number of stall cycles
system.mem_ctrls.stallsPerReq               42.341844                       # Expected number of stall cycles per request
system.mem_ctrls.memBankBusy                     5421                       # memory stalls due to busy bank
system.mem_ctrls.memBusBusy                      6510                       # memory stalls due to busy bus
system.mem_ctrls.memDataBusBusy                  2506                       # memory stalls due to read read turnaround
system.mem_ctrls.memArbWait                      4077                       # memory stalls due to arbitration
system.mem_ctrls.memNotOld                       6099                       # memory stalls due to anti starvation
system.mem_ctrls.memBankCount            |         100      3.55%      3.55% |          83      2.94%      6.49% |          88      3.12%      9.61% |          89      3.16%     12.77% |          85      3.01%     15.78% |          87      3.09%     18.87% |          82      2.91%     21.77% |          77      2.73%     24.50% |          75      2.66%     27.16% |          74      2.62%     29.79% |          76      2.70%     32.48% |          87      3.09%     35.57% |          80      2.84%     38.40% |          84      2.98%     41.38% |          96      3.40%     44.79% |         109      3.87%     48.65% |          99      3.51%     52.16% |          88      3.12%     55.28% |          86      3.05%     58.33% |          90      3.19%     61.52% |          91      3.23%     64.75% |          93      3.30%     68.05% |          85      3.01%     71.06% |          83      2.94%     74.01% |          86      3.05%     77.06% |          91      3.23%     80.28% |          92      3.26%     83.55% |          94      3.33%     86.88% |          88      3.12%     90.00% |          94      3.33%     93.33% |          91      3.23%     96.56% |          97      3.44%    100.00% # Number of accesses per bank
system.mem_ctrls.memBankCount::total             2820                       # Number of accesses per bank
system.ruby_clk_domain.clock                      500                       # Clock period in ticks
system.ruby.phys_mem.bytes_read::writebacks        48024                       # Number of bytes read from this memory
system.ruby.phys_mem.bytes_read::cpu.inst     18887920                       # Number of bytes read from this memory
system.ruby.phys_mem.bytes_read::cpu.data      2308646                       # Number of bytes read from this memory
system.ruby.phys_mem.bytes_read::gpu.ce         53252                       # Number of bytes read from this memory
system.ruby.phys_mem.bytes_read::gpu.shader_cores0.data      2071808                       # Number of bytes read from this memory
system.ruby.phys_mem.bytes_read::gpu.shader_cores0.inst          792                       # Number of bytes read from this memory
system.ruby.phys_mem.bytes_read::gpu.shader_cores1.data      1683008                       # Number of bytes read from this memory
system.ruby.phys_mem.bytes_read::gpu.shader_cores1.inst          920                       # Number of bytes read from this memory
system.ruby.phys_mem.bytes_read::gpu.shader_cores2.data      1649824                       # Number of bytes read from this memory
system.ruby.phys_mem.bytes_read::gpu.shader_cores2.inst         1184                       # Number of bytes read from this memory
system.ruby.phys_mem.bytes_read::gpu.shader_cores3.data      2088832                       # Number of bytes read from this memory
system.ruby.phys_mem.bytes_read::gpu.shader_cores3.inst         1040                       # Number of bytes read from this memory
system.ruby.phys_mem.bytes_read::total       28795250                       # Number of bytes read from this memory
system.ruby.phys_mem.bytes_inst_read::cpu.inst     18887920                       # Number of instructions bytes read from this memory
system.ruby.phys_mem.bytes_inst_read::gpu.shader_cores0.inst          792                       # Number of instructions bytes read from this memory
system.ruby.phys_mem.bytes_inst_read::gpu.shader_cores1.inst          920                       # Number of instructions bytes read from this memory
system.ruby.phys_mem.bytes_inst_read::gpu.shader_cores2.inst         1184                       # Number of instructions bytes read from this memory
system.ruby.phys_mem.bytes_inst_read::gpu.shader_cores3.inst         1040                       # Number of instructions bytes read from this memory
system.ruby.phys_mem.bytes_inst_read::total     18891856                       # Number of instructions bytes read from this memory
system.ruby.phys_mem.bytes_written::writebacks        48024                       # Number of bytes written to this memory
system.ruby.phys_mem.bytes_written::cpu.data      1152843                       # Number of bytes written to this memory
system.ruby.phys_mem.bytes_written::gpu.ce        53252                       # Number of bytes written to this memory
system.ruby.phys_mem.bytes_written::gpu.shader_cores0.data        34320                       # Number of bytes written to this memory
system.ruby.phys_mem.bytes_written::gpu.shader_cores1.data        34060                       # Number of bytes written to this memory
system.ruby.phys_mem.bytes_written::gpu.shader_cores2.data        64668                       # Number of bytes written to this memory
system.ruby.phys_mem.bytes_written::gpu.shader_cores3.data        36716                       # Number of bytes written to this memory
system.ruby.phys_mem.bytes_written::total      1423883                       # Number of bytes written to this memory
system.ruby.phys_mem.num_reads::writebacks        12006                       # Number of read requests responded to by this memory
system.ruby.phys_mem.num_reads::cpu.inst      2360990                       # Number of read requests responded to by this memory
system.ruby.phys_mem.num_reads::cpu.data       312538                       # Number of read requests responded to by this memory
system.ruby.phys_mem.num_reads::gpu.ce            424                       # Number of read requests responded to by this memory
system.ruby.phys_mem.num_reads::gpu.shader_cores0.data        61168                       # Number of read requests responded to by this memory
system.ruby.phys_mem.num_reads::gpu.shader_cores0.inst           50                       # Number of read requests responded to by this memory
system.ruby.phys_mem.num_reads::gpu.shader_cores1.data        48881                       # Number of read requests responded to by this memory
system.ruby.phys_mem.num_reads::gpu.shader_cores1.inst           58                       # Number of read requests responded to by this memory
system.ruby.phys_mem.num_reads::gpu.shader_cores2.data        46309                       # Number of read requests responded to by this memory
system.ruby.phys_mem.num_reads::gpu.shader_cores2.inst           74                       # Number of read requests responded to by this memory
system.ruby.phys_mem.num_reads::gpu.shader_cores3.data        60336                       # Number of read requests responded to by this memory
system.ruby.phys_mem.num_reads::gpu.shader_cores3.inst           65                       # Number of read requests responded to by this memory
system.ruby.phys_mem.num_reads::total         2902899                       # Number of read requests responded to by this memory
system.ruby.phys_mem.num_writes::writebacks        12006                       # Number of write requests responded to by this memory
system.ruby.phys_mem.num_writes::cpu.data       165456                       # Number of write requests responded to by this memory
system.ruby.phys_mem.num_writes::gpu.ce           423                       # Number of write requests responded to by this memory
system.ruby.phys_mem.num_writes::gpu.shader_cores0.data         2281                       # Number of write requests responded to by this memory
system.ruby.phys_mem.num_writes::gpu.shader_cores1.data         2338                       # Number of write requests responded to by this memory
system.ruby.phys_mem.num_writes::gpu.shader_cores2.data         2837                       # Number of write requests responded to by this memory
system.ruby.phys_mem.num_writes::gpu.shader_cores3.data         2820                       # Number of write requests responded to by this memory
system.ruby.phys_mem.num_writes::total         188161                       # Number of write requests responded to by this memory
system.ruby.phys_mem.bw_read::writebacks     12116637                       # Total read bandwidth from this memory (bytes/s)
system.ruby.phys_mem.bw_read::cpu.inst     4765493723                       # Total read bandwidth from this memory (bytes/s)
system.ruby.phys_mem.bw_read::cpu.data      582480126                       # Total read bandwidth from this memory (bytes/s)
system.ruby.phys_mem.bw_read::gpu.ce         13435681                       # Total read bandwidth from this memory (bytes/s)
system.ruby.phys_mem.bw_read::gpu.shader_cores0.data    522725002                       # Total read bandwidth from this memory (bytes/s)
system.ruby.phys_mem.bw_read::gpu.shader_cores0.inst       199825                       # Total read bandwidth from this memory (bytes/s)
system.ruby.phys_mem.bw_read::gpu.shader_cores1.data    424629290                       # Total read bandwidth from this memory (bytes/s)
system.ruby.phys_mem.bw_read::gpu.shader_cores1.inst       232119                       # Total read bandwidth from this memory (bytes/s)
system.ruby.phys_mem.bw_read::gpu.shader_cores2.data    416256841                       # Total read bandwidth from this memory (bytes/s)
system.ruby.phys_mem.bw_read::gpu.shader_cores2.inst       298728                       # Total read bandwidth from this memory (bytes/s)
system.ruby.phys_mem.bw_read::gpu.shader_cores3.data    527020222                       # Total read bandwidth from this memory (bytes/s)
system.ruby.phys_mem.bw_read::gpu.shader_cores3.inst       262396                       # Total read bandwidth from this memory (bytes/s)
system.ruby.phys_mem.bw_read::total        7265150590                       # Total read bandwidth from this memory (bytes/s)
system.ruby.phys_mem.bw_inst_read::cpu.inst   4765493723                       # Instruction read bandwidth from this memory (bytes/s)
system.ruby.phys_mem.bw_inst_read::gpu.shader_cores0.inst       199825                       # Instruction read bandwidth from this memory (bytes/s)
system.ruby.phys_mem.bw_inst_read::gpu.shader_cores1.inst       232119                       # Instruction read bandwidth from this memory (bytes/s)
system.ruby.phys_mem.bw_inst_read::gpu.shader_cores2.inst       298728                       # Instruction read bandwidth from this memory (bytes/s)
system.ruby.phys_mem.bw_inst_read::gpu.shader_cores3.inst       262396                       # Instruction read bandwidth from this memory (bytes/s)
system.ruby.phys_mem.bw_inst_read::total   4766486791                       # Instruction read bandwidth from this memory (bytes/s)
system.ruby.phys_mem.bw_write::writebacks     12116637                       # Write bandwidth from this memory (bytes/s)
system.ruby.phys_mem.bw_write::cpu.data     290866653                       # Write bandwidth from this memory (bytes/s)
system.ruby.phys_mem.bw_write::gpu.ce        13435681                       # Write bandwidth from this memory (bytes/s)
system.ruby.phys_mem.bw_write::gpu.shader_cores0.data      8659066                       # Write bandwidth from this memory (bytes/s)
system.ruby.phys_mem.bw_write::gpu.shader_cores1.data      8593467                       # Write bandwidth from this memory (bytes/s)
system.ruby.phys_mem.bw_write::gpu.shader_cores2.data     16315981                       # Write bandwidth from this memory (bytes/s)
system.ruby.phys_mem.bw_write::gpu.shader_cores3.data      9263586                       # Write bandwidth from this memory (bytes/s)
system.ruby.phys_mem.bw_write::total        359251072                       # Write bandwidth from this memory (bytes/s)
system.ruby.phys_mem.bw_total::writebacks     24233274                       # Total bandwidth to/from this memory (bytes/s)
system.ruby.phys_mem.bw_total::cpu.inst    4765493723                       # Total bandwidth to/from this memory (bytes/s)
system.ruby.phys_mem.bw_total::cpu.data     873346779                       # Total bandwidth to/from this memory (bytes/s)
system.ruby.phys_mem.bw_total::gpu.ce        26871362                       # Total bandwidth to/from this memory (bytes/s)
system.ruby.phys_mem.bw_total::gpu.shader_cores0.data    531384068                       # Total bandwidth to/from this memory (bytes/s)
system.ruby.phys_mem.bw_total::gpu.shader_cores0.inst       199825                       # Total bandwidth to/from this memory (bytes/s)
system.ruby.phys_mem.bw_total::gpu.shader_cores1.data    433222757                       # Total bandwidth to/from this memory (bytes/s)
system.ruby.phys_mem.bw_total::gpu.shader_cores1.inst       232119                       # Total bandwidth to/from this memory (bytes/s)
system.ruby.phys_mem.bw_total::gpu.shader_cores2.data    432572822                       # Total bandwidth to/from this memory (bytes/s)
system.ruby.phys_mem.bw_total::gpu.shader_cores2.inst       298728                       # Total bandwidth to/from this memory (bytes/s)
system.ruby.phys_mem.bw_total::gpu.shader_cores3.data    536283807                       # Total bandwidth to/from this memory (bytes/s)
system.ruby.phys_mem.bw_total::gpu.shader_cores3.inst       262396                       # Total bandwidth to/from this memory (bytes/s)
system.ruby.phys_mem.bw_total::total       7624401662                       # Total bandwidth to/from this memory (bytes/s)
system.cpu_voltage_domain.voltage                   1                       # Voltage in Volts
system.cpu_clk_domain.clock                       500                       # Clock period in ticks
system.cpu.apic_clk_domain.clock                 8000                       # Clock period in ticks
system.cpu.workload.num_syscalls                   28                       # Number of system calls
system.cpu.numCycles                          7926952                       # number of cpu cycles simulated
system.cpu.numWorkItemsStarted                      1                       # number of work items this cpu started
system.cpu.numWorkItemsCompleted                    1                       # number of work items this cpu completed
system.cpu.committedInsts                     1655432                       # Number of instructions committed
system.cpu.committedOps                       2723817                       # Number of ops (including micro ops) committed
system.cpu.num_int_alu_accesses               1974707                       # Number of integer alu accesses
system.cpu.num_fp_alu_accesses                1026154                       # Number of float alu accesses
system.cpu.num_func_calls                       31676                       # number of times a function call or return occured
system.cpu.num_conditional_control_insts       149215                       # number of instructions that are conditional controls
system.cpu.num_int_insts                      1974707                       # number of integer instructions
system.cpu.num_fp_insts                       1026154                       # number of float instructions
system.cpu.num_int_register_reads             3737351                       # number of times the integer registers were read
system.cpu.num_int_register_writes            1435253                       # number of times the integer registers were written
system.cpu.num_fp_register_reads              1958134                       # number of times the floating registers were read
system.cpu.num_fp_register_writes              903395                       # number of times the floating registers were written
system.cpu.num_cc_register_reads              1056949                       # number of times the CC registers were read
system.cpu.num_cc_register_writes              673745                       # number of times the CC registers were written
system.cpu.num_mem_refs                        477988                       # number of memory refs
system.cpu.num_load_insts                      312532                       # Number of load instructions
system.cpu.num_store_insts                     165456                       # Number of store instructions
system.cpu.num_idle_cycles               1961305.181505                       # Number of idle cycles
system.cpu.num_busy_cycles               5965646.818495                       # Number of busy cycles
system.cpu.not_idle_fraction                 0.752578                       # Percentage of non-idle cycles
system.cpu.idle_fraction                     0.247422                       # Percentage of idle cycles
system.cpu.Branches                            196571                       # Number of branches fetched
system.cpu.op_class::No_OpClass                  2269      0.08%      0.08% # Class of executed instruction
system.cpu.op_class::IntAlu                   1718581     63.09%     63.18% # Class of executed instruction
system.cpu.op_class::IntMult                    18031      0.66%     63.84% # Class of executed instruction
system.cpu.op_class::IntDiv                      1293      0.05%     63.89% # Class of executed instruction
system.cpu.op_class::FloatAdd                  505655     18.56%     82.45% # Class of executed instruction
system.cpu.op_class::FloatCmp                       0      0.00%     82.45% # Class of executed instruction
system.cpu.op_class::FloatCvt                       0      0.00%     82.45% # Class of executed instruction
system.cpu.op_class::FloatMult                      0      0.00%     82.45% # Class of executed instruction
system.cpu.op_class::FloatDiv                       0      0.00%     82.45% # Class of executed instruction
system.cpu.op_class::FloatSqrt                      0      0.00%     82.45% # Class of executed instruction
system.cpu.op_class::SimdAdd                        0      0.00%     82.45% # Class of executed instruction
system.cpu.op_class::SimdAddAcc                     0      0.00%     82.45% # Class of executed instruction
system.cpu.op_class::SimdAlu                        0      0.00%     82.45% # Class of executed instruction
system.cpu.op_class::SimdCmp                        0      0.00%     82.45% # Class of executed instruction
system.cpu.op_class::SimdCvt                        0      0.00%     82.45% # Class of executed instruction
system.cpu.op_class::SimdMisc                       0      0.00%     82.45% # Class of executed instruction
system.cpu.op_class::SimdMult                       0      0.00%     82.45% # Class of executed instruction
system.cpu.op_class::SimdMultAcc                    0      0.00%     82.45% # Class of executed instruction
system.cpu.op_class::SimdShift                      0      0.00%     82.45% # Class of executed instruction
system.cpu.op_class::SimdShiftAcc                   0      0.00%     82.45% # Class of executed instruction
system.cpu.op_class::SimdSqrt                       0      0.00%     82.45% # Class of executed instruction
system.cpu.op_class::SimdFloatAdd                   0      0.00%     82.45% # Class of executed instruction
system.cpu.op_class::SimdFloatAlu                   0      0.00%     82.45% # Class of executed instruction
system.cpu.op_class::SimdFloatCmp                   0      0.00%     82.45% # Class of executed instruction
system.cpu.op_class::SimdFloatCvt                   0      0.00%     82.45% # Class of executed instruction
system.cpu.op_class::SimdFloatDiv                   0      0.00%     82.45% # Class of executed instruction
system.cpu.op_class::SimdFloatMisc                  0      0.00%     82.45% # Class of executed instruction
system.cpu.op_class::SimdFloatMult                  0      0.00%     82.45% # Class of executed instruction
system.cpu.op_class::SimdFloatMultAcc               0      0.00%     82.45% # Class of executed instruction
system.cpu.op_class::SimdFloatSqrt                  0      0.00%     82.45% # Class of executed instruction
system.cpu.op_class::MemRead                   312532     11.47%     93.93% # Class of executed instruction
system.cpu.op_class::MemWrite                  165456      6.07%    100.00% # Class of executed instruction
system.cpu.op_class::IprAccess                      0      0.00%    100.00% # Class of executed instruction
system.cpu.op_class::InstPrefetch                   0      0.00%    100.00% # Class of executed instruction
system.cpu.op_class::total                    2723817                       # Class of executed instruction
system.gpu.clk_domain.voltage_domain.voltage            1                       # Voltage in Volts
system.gpu.clk_domain.clock                      1429                       # Clock period in ticks
system.gpu.dram_wrapper.clk_domain.clock          541                       # Clock period in ticks
system.gpu.icnt_wrapper.clk_domain.clock         2858                       # Clock period in ticks
system.ruby.delayHist::bucket_size               1024                       # delay histogram for all message
system.ruby.delayHist::max_bucket               10239                       # delay histogram for all message
system.ruby.delayHist::samples                  61239                       # delay histogram for all message
system.ruby.delayHist::mean                 58.674701                       # delay histogram for all message
system.ruby.delayHist::stdev               506.359294                       # delay histogram for all message
system.ruby.delayHist                    |       60668     99.07%     99.07% |          28      0.05%     99.11% |          26      0.04%     99.16% |          43      0.07%     99.23% |         176      0.29%     99.51% |         124      0.20%     99.72% |         174      0.28%    100.00% |           0      0.00%    100.00% |           0      0.00%    100.00% |           0      0.00%    100.00% # delay histogram for all message
system.ruby.delayHist::total                    61239                       # delay histogram for all message
system.ruby.outstanding_req_hist::bucket_size            8                      
system.ruby.outstanding_req_hist::max_bucket           79                      
system.ruby.outstanding_req_hist::samples      3071924                      
system.ruby.outstanding_req_hist::mean       1.034643                      
system.ruby.outstanding_req_hist::gmean      1.008016                      
system.ruby.outstanding_req_hist::stdev      0.969304                      
system.ruby.outstanding_req_hist         |     3068151     99.88%     99.88% |        1876      0.06%     99.94% |         744      0.02%     99.96% |         539      0.02%     99.98% |          62      0.00%     99.98% |          55      0.00%     99.98% |          37      0.00%     99.99% |         331      0.01%    100.00% |         129      0.00%    100.00% |           0      0.00%    100.00%
system.ruby.outstanding_req_hist::total       3071924                      
system.ruby.latency_hist::bucket_size            1024                      
system.ruby.latency_hist::max_bucket            10239                      
system.ruby.latency_hist::samples             3071924                      
system.ruby.latency_hist::mean               1.932366                      
system.ruby.latency_hist::gmean              1.021686                      
system.ruby.latency_hist::stdev             42.599579                      
system.ruby.latency_hist                 |     3071290     99.98%     99.98% |         133      0.00%     99.98% |         291      0.01%     99.99% |         168      0.01%    100.00% |          29      0.00%    100.00% |          12      0.00%    100.00% |           1      0.00%    100.00% |           0      0.00%    100.00% |           0      0.00%    100.00% |           0      0.00%    100.00%
system.ruby.latency_hist::total               3071924                      
system.ruby.hit_latency_hist::bucket_size            1                      
system.ruby.hit_latency_hist::max_bucket            9                      
system.ruby.hit_latency_hist::samples         3054490                      
system.ruby.hit_latency_hist::mean                  1                      
system.ruby.hit_latency_hist::gmean                 1                      
system.ruby.hit_latency_hist             |           0      0.00%      0.00% |     3054490    100.00%    100.00% |           0      0.00%    100.00% |           0      0.00%    100.00% |           0      0.00%    100.00% |           0      0.00%    100.00% |           0      0.00%    100.00% |           0      0.00%    100.00% |           0      0.00%    100.00% |           0      0.00%    100.00%
system.ruby.hit_latency_hist::total           3054490                      
system.ruby.miss_latency_hist::bucket_size         1024                      
system.ruby.miss_latency_hist::max_bucket        10239                      
system.ruby.miss_latency_hist::samples          17434                      
system.ruby.miss_latency_hist::mean        165.285821                      
system.ruby.miss_latency_hist::gmean        43.827850                      
system.ruby.miss_latency_hist::stdev       541.239294                      
system.ruby.miss_latency_hist            |       16800     96.36%     96.36% |         133      0.76%     97.13% |         291      1.67%     98.80% |         168      0.96%     99.76% |          29      0.17%     99.93% |          12      0.07%     99.99% |           1      0.01%    100.00% |           0      0.00%    100.00% |           0      0.00%    100.00% |           0      0.00%    100.00%
system.ruby.miss_latency_hist::total            17434                      
system.gpu.shader_mmu.numPagefaults                 0                       # Number of Pagefaults
system.gpu.shader_mmu.numPagewalks                 29                       # Number of Pagewalks
system.gpu.shader_mmu.totalRequests                29                       # Total number of requests
system.gpu.shader_mmu.l2hits                        0                       # Hits in the shared L2
system.gpu.shader_mmu.prefetchHits                  0                       # Number of prefetch hits
system.gpu.shader_mmu.numPrefetches                 0                       # Number of prefetchs
system.gpu.shader_mmu.prefetchFaults                0                       # Number of faults caused by prefetches
system.gpu.shader_mmu.pagefaultLatency::samples            0                       # Latency to complete the pagefault
system.gpu.shader_mmu.pagefaultLatency::mean          nan                       # Latency to complete the pagefault
system.gpu.shader_mmu.pagefaultLatency::gmean          nan                       # Latency to complete the pagefault
system.gpu.shader_mmu.pagefaultLatency::stdev          nan                       # Latency to complete the pagefault
system.gpu.shader_mmu.pagefaultLatency::0            0                       # Latency to complete the pagefault
system.gpu.shader_mmu.pagefaultLatency::1            0                       # Latency to complete the pagefault
system.gpu.shader_mmu.pagefaultLatency::2            0                       # Latency to complete the pagefault
system.gpu.shader_mmu.pagefaultLatency::3            0                       # Latency to complete the pagefault
system.gpu.shader_mmu.pagefaultLatency::4            0                       # Latency to complete the pagefault
system.gpu.shader_mmu.pagefaultLatency::5            0                       # Latency to complete the pagefault
system.gpu.shader_mmu.pagefaultLatency::6            0                       # Latency to complete the pagefault
system.gpu.shader_mmu.pagefaultLatency::7            0                       # Latency to complete the pagefault
system.gpu.shader_mmu.pagefaultLatency::8            0                       # Latency to complete the pagefault
system.gpu.shader_mmu.pagefaultLatency::9            0                       # Latency to complete the pagefault
system.gpu.shader_mmu.pagefaultLatency::10            0                       # Latency to complete the pagefault
system.gpu.shader_mmu.pagefaultLatency::11            0                       # Latency to complete the pagefault
system.gpu.shader_mmu.pagefaultLatency::12            0                       # Latency to complete the pagefault
system.gpu.shader_mmu.pagefaultLatency::13            0                       # Latency to complete the pagefault
system.gpu.shader_mmu.pagefaultLatency::14            0                       # Latency to complete the pagefault
system.gpu.shader_mmu.pagefaultLatency::15            0                       # Latency to complete the pagefault
system.gpu.shader_mmu.pagefaultLatency::16            0                       # Latency to complete the pagefault
system.gpu.shader_mmu.pagefaultLatency::17            0                       # Latency to complete the pagefault
system.gpu.shader_mmu.pagefaultLatency::18            0                       # Latency to complete the pagefault
system.gpu.shader_mmu.pagefaultLatency::19            0                       # Latency to complete the pagefault
system.gpu.shader_mmu.pagefaultLatency::20            0                       # Latency to complete the pagefault
system.gpu.shader_mmu.pagefaultLatency::21            0                       # Latency to complete the pagefault
system.gpu.shader_mmu.pagefaultLatency::22            0                       # Latency to complete the pagefault
system.gpu.shader_mmu.pagefaultLatency::23            0                       # Latency to complete the pagefault
system.gpu.shader_mmu.pagefaultLatency::24            0                       # Latency to complete the pagefault
system.gpu.shader_mmu.pagefaultLatency::25            0                       # Latency to complete the pagefault
system.gpu.shader_mmu.pagefaultLatency::26            0                       # Latency to complete the pagefault
system.gpu.shader_mmu.pagefaultLatency::27            0                       # Latency to complete the pagefault
system.gpu.shader_mmu.pagefaultLatency::28            0                       # Latency to complete the pagefault
system.gpu.shader_mmu.pagefaultLatency::29            0                       # Latency to complete the pagefault
system.gpu.shader_mmu.pagefaultLatency::30            0                       # Latency to complete the pagefault
system.gpu.shader_mmu.pagefaultLatency::31            0                       # Latency to complete the pagefault
system.gpu.shader_mmu.pagefaultLatency::total            0                       # Latency to complete the pagefault
system.gpu.shader_mmu.concurrentWalks::samples           29                       # Number of outstanding walks
system.gpu.shader_mmu.concurrentWalks::mean            0                       # Number of outstanding walks
system.gpu.shader_mmu.concurrentWalks::gmean            0                       # Number of outstanding walks
system.gpu.shader_mmu.concurrentWalks::stdev            0                       # Number of outstanding walks
system.gpu.shader_mmu.concurrentWalks::0           29    100.00%    100.00% # Number of outstanding walks
system.gpu.shader_mmu.concurrentWalks::1            0      0.00%    100.00% # Number of outstanding walks
system.gpu.shader_mmu.concurrentWalks::2            0      0.00%    100.00% # Number of outstanding walks
system.gpu.shader_mmu.concurrentWalks::3            0      0.00%    100.00% # Number of outstanding walks
system.gpu.shader_mmu.concurrentWalks::4            0      0.00%    100.00% # Number of outstanding walks
system.gpu.shader_mmu.concurrentWalks::5            0      0.00%    100.00% # Number of outstanding walks
system.gpu.shader_mmu.concurrentWalks::6            0      0.00%    100.00% # Number of outstanding walks
system.gpu.shader_mmu.concurrentWalks::7            0      0.00%    100.00% # Number of outstanding walks
system.gpu.shader_mmu.concurrentWalks::8            0      0.00%    100.00% # Number of outstanding walks
system.gpu.shader_mmu.concurrentWalks::9            0      0.00%    100.00% # Number of outstanding walks
system.gpu.shader_mmu.concurrentWalks::10            0      0.00%    100.00% # Number of outstanding walks
system.gpu.shader_mmu.concurrentWalks::11            0      0.00%    100.00% # Number of outstanding walks
system.gpu.shader_mmu.concurrentWalks::12            0      0.00%    100.00% # Number of outstanding walks
system.gpu.shader_mmu.concurrentWalks::13            0      0.00%    100.00% # Number of outstanding walks
system.gpu.shader_mmu.concurrentWalks::14            0      0.00%    100.00% # Number of outstanding walks
system.gpu.shader_mmu.concurrentWalks::15            0      0.00%    100.00% # Number of outstanding walks
system.gpu.shader_mmu.concurrentWalks::total           29                       # Number of outstanding walks
system.gpu.shader_mmu.pagewalkLatency::samples           29                       # Latency to complete the pagewalk
system.gpu.shader_mmu.pagewalkLatency::mean            0                       # Latency to complete the pagewalk
system.gpu.shader_mmu.pagewalkLatency::gmean            0                       # Latency to complete the pagewalk
system.gpu.shader_mmu.pagewalkLatency::stdev            0                       # Latency to complete the pagewalk
system.gpu.shader_mmu.pagewalkLatency::0           29    100.00%    100.00% # Latency to complete the pagewalk
system.gpu.shader_mmu.pagewalkLatency::1            0      0.00%    100.00% # Latency to complete the pagewalk
system.gpu.shader_mmu.pagewalkLatency::2            0      0.00%    100.00% # Latency to complete the pagewalk
system.gpu.shader_mmu.pagewalkLatency::3            0      0.00%    100.00% # Latency to complete the pagewalk
system.gpu.shader_mmu.pagewalkLatency::4            0      0.00%    100.00% # Latency to complete the pagewalk
system.gpu.shader_mmu.pagewalkLatency::5            0      0.00%    100.00% # Latency to complete the pagewalk
system.gpu.shader_mmu.pagewalkLatency::6            0      0.00%    100.00% # Latency to complete the pagewalk
system.gpu.shader_mmu.pagewalkLatency::7            0      0.00%    100.00% # Latency to complete the pagewalk
system.gpu.shader_mmu.pagewalkLatency::8            0      0.00%    100.00% # Latency to complete the pagewalk
system.gpu.shader_mmu.pagewalkLatency::9            0      0.00%    100.00% # Latency to complete the pagewalk
system.gpu.shader_mmu.pagewalkLatency::10            0      0.00%    100.00% # Latency to complete the pagewalk
system.gpu.shader_mmu.pagewalkLatency::11            0      0.00%    100.00% # Latency to complete the pagewalk
system.gpu.shader_mmu.pagewalkLatency::12            0      0.00%    100.00% # Latency to complete the pagewalk
system.gpu.shader_mmu.pagewalkLatency::13            0      0.00%    100.00% # Latency to complete the pagewalk
system.gpu.shader_mmu.pagewalkLatency::14            0      0.00%    100.00% # Latency to complete the pagewalk
system.gpu.shader_mmu.pagewalkLatency::15            0      0.00%    100.00% # Latency to complete the pagewalk
system.gpu.shader_mmu.pagewalkLatency::16            0      0.00%    100.00% # Latency to complete the pagewalk
system.gpu.shader_mmu.pagewalkLatency::17            0      0.00%    100.00% # Latency to complete the pagewalk
system.gpu.shader_mmu.pagewalkLatency::18            0      0.00%    100.00% # Latency to complete the pagewalk
system.gpu.shader_mmu.pagewalkLatency::19            0      0.00%    100.00% # Latency to complete the pagewalk
system.gpu.shader_mmu.pagewalkLatency::20            0      0.00%    100.00% # Latency to complete the pagewalk
system.gpu.shader_mmu.pagewalkLatency::21            0      0.00%    100.00% # Latency to complete the pagewalk
system.gpu.shader_mmu.pagewalkLatency::22            0      0.00%    100.00% # Latency to complete the pagewalk
system.gpu.shader_mmu.pagewalkLatency::23            0      0.00%    100.00% # Latency to complete the pagewalk
system.gpu.shader_mmu.pagewalkLatency::24            0      0.00%    100.00% # Latency to complete the pagewalk
system.gpu.shader_mmu.pagewalkLatency::25            0      0.00%    100.00% # Latency to complete the pagewalk
system.gpu.shader_mmu.pagewalkLatency::26            0      0.00%    100.00% # Latency to complete the pagewalk
system.gpu.shader_mmu.pagewalkLatency::27            0      0.00%    100.00% # Latency to complete the pagewalk
system.gpu.shader_mmu.pagewalkLatency::28            0      0.00%    100.00% # Latency to complete the pagewalk
system.gpu.shader_mmu.pagewalkLatency::29            0      0.00%    100.00% # Latency to complete the pagewalk
system.gpu.shader_mmu.pagewalkLatency::30            0      0.00%    100.00% # Latency to complete the pagewalk
system.gpu.shader_mmu.pagewalkLatency::31            0      0.00%    100.00% # Latency to complete the pagewalk
system.gpu.shader_mmu.pagewalkLatency::total           29                       # Latency to complete the pagewalk
system.gpu.kernels_started                          9                       # Number of kernels started
system.gpu.kernels_completed                        9                       # Number of kernels completed
system.gpu.ce.device_dtb.hits                       0                       # Number of hits in this TLB
system.gpu.ce.device_dtb.misses                     0                       # Number of misses in this TLB
system.gpu.ce.device_dtb.hitRate                  nan                       # Hit rate for this TLB
system.gpu.ce.host_dtb.hits                       401                       # Number of hits in this TLB
system.gpu.ce.host_dtb.misses                      29                       # Number of misses in this TLB
system.gpu.ce.host_dtb.hitRate               0.932558                       # Hit rate for this TLB
system.gpu.ce.numOperations                        14                       # Number of copy/memset operations
system.gpu.ce.opBytesRead                       53252                       # Number of copy bytes read
system.gpu.ce.opBytesWritten                    53252                       # Number of copy/memset bytes written
system.gpu.ce.opTimeTicks                    77047962                       # Total time spent in copy/memset operations
system.gpu.shader_cores0.itb.hits                   0                       # Number of hits in this TLB
system.gpu.shader_cores0.itb.misses                 0                       # Number of misses in this TLB
system.gpu.shader_cores0.itb.hitRate              nan                       # Hit rate for this TLB
system.gpu.shader_cores0.local_loads                0                       # Number of loads from local space
system.gpu.shader_cores0.local_stores               0                       # Number of stores to local space
system.gpu.shader_cores0.shared_loads          363413                       # Number of loads from shared space
system.gpu.shader_cores0.shared_stores          28405                       # Number of stores to shared space
system.gpu.shader_cores0.param_kernel_loads       744574                       # Number of loads from kernel parameter space
system.gpu.shader_cores0.param_local_loads            0                       # Number of loads from local parameter space
system.gpu.shader_cores0.param_local_stores            0                       # Number of stores to local parameter space
system.gpu.shader_cores0.const_loads                0                       # Number of loads from constant space
system.gpu.shader_cores0.tex_loads                  0                       # Number of loads from texture space
system.gpu.shader_cores0.global_loads         1835517                       # Number of loads from global space
system.gpu.shader_cores0.global_stores           8580                       # Number of stores to global space
system.gpu.shader_cores0.surf_loads                 0                       # Number of loads from surface space
system.gpu.shader_cores0.generic_loads              0                       # Number of loads from generic spaces (global, shared, local)
system.gpu.shader_cores0.generic_stores             0                       # Number of stores to generic spaces (global, shared, local)
system.gpu.shader_cores0.inst_cache_requests           50                       # Number of instruction cache requests sent
system.gpu.shader_cores0.inst_cache_retries            0                       # Number of instruction cache retries
system.gpu.shader_cores0.inst_counts::0             0                       # Inst counts: 1: ALU, 2: MAD, 3: CTRL, 4: SFU, 5: MEM, 6: TEX, 7: NOP
system.gpu.shader_cores0.inst_counts::1      11413588                       # Inst counts: 1: ALU, 2: MAD, 3: CTRL, 4: SFU, 5: MEM, 6: TEX, 7: NOP
system.gpu.shader_cores0.inst_counts::2       1826526                       # Inst counts: 1: ALU, 2: MAD, 3: CTRL, 4: SFU, 5: MEM, 6: TEX, 7: NOP
system.gpu.shader_cores0.inst_counts::3       1640228                       # Inst counts: 1: ALU, 2: MAD, 3: CTRL, 4: SFU, 5: MEM, 6: TEX, 7: NOP
system.gpu.shader_cores0.inst_counts::4        247872                       # Inst counts: 1: ALU, 2: MAD, 3: CTRL, 4: SFU, 5: MEM, 6: TEX, 7: NOP
system.gpu.shader_cores0.inst_counts::5       2980489                       # Inst counts: 1: ALU, 2: MAD, 3: CTRL, 4: SFU, 5: MEM, 6: TEX, 7: NOP
system.gpu.shader_cores0.inst_counts::6             0                       # Inst counts: 1: ALU, 2: MAD, 3: CTRL, 4: SFU, 5: MEM, 6: TEX, 7: NOP
system.gpu.shader_cores0.inst_counts::7             0                       # Inst counts: 1: ALU, 2: MAD, 3: CTRL, 4: SFU, 5: MEM, 6: TEX, 7: NOP
system.gpu.shader_cores0.activeCycles          600563                       # Number of cycles this shader was executing a CTA
system.gpu.shader_cores0.notStalledCycles       449969                       # Number of cycles this shader was actually executing at least one instance
system.gpu.shader_cores0.instInstances       18108703                       # Total instructions executed by all PEs in the core
system.gpu.shader_cores0.instPerCycle       30.152878                       # Instruction instances per cycle
system.gpu.shader_cores0.kernels_completed            8                       # Number of kernels completed
system.gpu.shader_cores0.lsq.data_tlb.hits            0                       # Number of hits in this TLB
system.gpu.shader_cores0.lsq.data_tlb.misses            0                       # Number of misses in this TLB
system.gpu.shader_cores0.lsq.data_tlb.hitRate          nan                       # Hit rate for this TLB
system.gpu.shader_cores0.lsq.warpInstBufActive::samples    396795525                       # Histogram of number of active warp inst buffers at a given time
system.gpu.shader_cores0.lsq.warpInstBufActive::mean     3.320240                       # Histogram of number of active warp inst buffers at a given time
system.gpu.shader_cores0.lsq.warpInstBufActive::gmean          nan                       # Histogram of number of active warp inst buffers at a given time
system.gpu.shader_cores0.lsq.warpInstBufActive::stdev     6.088311                       # Histogram of number of active warp inst buffers at a given time
system.gpu.shader_cores0.lsq.warpInstBufActive::0   -208114465    -52.45%    -52.45% # Histogram of number of active warp inst buffers at a given time
system.gpu.shader_cores0.lsq.warpInstBufActive::1    327941210     82.65%     30.20% # Histogram of number of active warp inst buffers at a given time
system.gpu.shader_cores0.lsq.warpInstBufActive::2    188826631     47.59%     77.79% # Histogram of number of active warp inst buffers at a given time
system.gpu.shader_cores0.lsq.warpInstBufActive::3     62740245     15.81%     93.60% # Histogram of number of active warp inst buffers at a given time
system.gpu.shader_cores0.lsq.warpInstBufActive::4     13072492      3.29%     96.89% # Histogram of number of active warp inst buffers at a given time
system.gpu.shader_cores0.lsq.warpInstBufActive::5      1939153      0.49%     97.38% # Histogram of number of active warp inst buffers at a given time
system.gpu.shader_cores0.lsq.warpInstBufActive::6       580174      0.15%     97.53% # Histogram of number of active warp inst buffers at a given time
system.gpu.shader_cores0.lsq.warpInstBufActive::7       224353      0.06%     97.58% # Histogram of number of active warp inst buffers at a given time
system.gpu.shader_cores0.lsq.warpInstBufActive::8       237214      0.06%     97.64% # Histogram of number of active warp inst buffers at a given time
system.gpu.shader_cores0.lsq.warpInstBufActive::9       180054      0.05%     97.69% # Histogram of number of active warp inst buffers at a given time
system.gpu.shader_cores0.lsq.warpInstBufActive::10       152903      0.04%     97.73% # Histogram of number of active warp inst buffers at a given time
system.gpu.shader_cores0.lsq.warpInstBufActive::11       287229      0.07%     97.80% # Histogram of number of active warp inst buffers at a given time
system.gpu.shader_cores0.lsq.warpInstBufActive::12       235785      0.06%     97.86% # Histogram of number of active warp inst buffers at a given time
system.gpu.shader_cores0.lsq.warpInstBufActive::13       210063      0.05%     97.91% # Histogram of number of active warp inst buffers at a given time
system.gpu.shader_cores0.lsq.warpInstBufActive::14       181483      0.05%     97.96% # Histogram of number of active warp inst buffers at a given time
system.gpu.shader_cores0.lsq.warpInstBufActive::15       195773      0.05%     98.01% # Histogram of number of active warp inst buffers at a given time
system.gpu.shader_cores0.lsq.warpInstBufActive::16       217208      0.05%     98.06% # Histogram of number of active warp inst buffers at a given time
system.gpu.shader_cores0.lsq.warpInstBufActive::17       205776      0.05%     98.11% # Histogram of number of active warp inst buffers at a given time
system.gpu.shader_cores0.lsq.warpInstBufActive::18       260078      0.07%     98.18% # Histogram of number of active warp inst buffers at a given time
system.gpu.shader_cores0.lsq.warpInstBufActive::19       241501      0.06%     98.24% # Histogram of number of active warp inst buffers at a given time
system.gpu.shader_cores0.lsq.warpInstBufActive::20       187199      0.05%     98.29% # Histogram of number of active warp inst buffers at a given time
system.gpu.shader_cores0.lsq.warpInstBufActive::21       205776      0.05%     98.34% # Histogram of number of active warp inst buffers at a given time
system.gpu.shader_cores0.lsq.warpInstBufActive::22       132897      0.03%     98.37% # Histogram of number of active warp inst buffers at a given time
system.gpu.shader_cores0.lsq.warpInstBufActive::23       180054      0.05%     98.42% # Histogram of number of active warp inst buffers at a given time
system.gpu.shader_cores0.lsq.warpInstBufActive::24       380114      0.10%     98.51% # Histogram of number of active warp inst buffers at a given time
system.gpu.shader_cores0.lsq.warpInstBufActive::25       140042      0.04%     98.55% # Histogram of number of active warp inst buffers at a given time
system.gpu.shader_cores0.lsq.warpInstBufActive::26       138613      0.03%     98.58% # Histogram of number of active warp inst buffers at a given time
system.gpu.shader_cores0.lsq.warpInstBufActive::27       132897      0.03%     98.62% # Histogram of number of active warp inst buffers at a given time
system.gpu.shader_cores0.lsq.warpInstBufActive::28       212921      0.05%     98.67% # Histogram of number of active warp inst buffers at a given time
system.gpu.shader_cores0.lsq.warpInstBufActive::29       154332      0.04%     98.71% # Histogram of number of active warp inst buffers at a given time
system.gpu.shader_cores0.lsq.warpInstBufActive::30        88598      0.02%     98.73% # Histogram of number of active warp inst buffers at a given time
system.gpu.shader_cores0.lsq.warpInstBufActive::31       168622      0.04%     98.78% # Histogram of number of active warp inst buffers at a given time
system.gpu.shader_cores0.lsq.warpInstBufActive::32        27151      0.01%     98.78% # Histogram of number of active warp inst buffers at a given time
system.gpu.shader_cores0.lsq.warpInstBufActive::33        50015      0.01%     98.79% # Histogram of number of active warp inst buffers at a given time
system.gpu.shader_cores0.lsq.warpInstBufActive::34        41441      0.01%     98.81% # Histogram of number of active warp inst buffers at a given time
system.gpu.shader_cores0.lsq.warpInstBufActive::35        75737      0.02%     98.82% # Histogram of number of active warp inst buffers at a given time
system.gpu.shader_cores0.lsq.warpInstBufActive::36        31438      0.01%     98.83% # Histogram of number of active warp inst buffers at a given time
system.gpu.shader_cores0.lsq.warpInstBufActive::37        18577      0.00%     98.84% # Histogram of number of active warp inst buffers at a given time
system.gpu.shader_cores0.lsq.warpInstBufActive::38        24293      0.01%     98.84% # Histogram of number of active warp inst buffers at a given time
system.gpu.shader_cores0.lsq.warpInstBufActive::39       112891      0.03%     98.87% # Histogram of number of active warp inst buffers at a given time
system.gpu.shader_cores0.lsq.warpInstBufActive::40       112891      0.03%     98.90% # Histogram of number of active warp inst buffers at a given time
system.gpu.shader_cores0.lsq.warpInstBufActive::41       102888      0.03%     98.93% # Histogram of number of active warp inst buffers at a given time
system.gpu.shader_cores0.lsq.warpInstBufActive::42       188628      0.05%     98.97% # Histogram of number of active warp inst buffers at a given time
system.gpu.shader_cores0.lsq.warpInstBufActive::43       131468      0.03%     99.01% # Histogram of number of active warp inst buffers at a given time
system.gpu.shader_cores0.lsq.warpInstBufActive::44       120036      0.03%     99.04% # Histogram of number of active warp inst buffers at a given time
system.gpu.shader_cores0.lsq.warpInstBufActive::45       135755      0.03%     99.07% # Histogram of number of active warp inst buffers at a given time
system.gpu.shader_cores0.lsq.warpInstBufActive::46       112891      0.03%     99.10% # Histogram of number of active warp inst buffers at a given time
system.gpu.shader_cores0.lsq.warpInstBufActive::47       178625      0.05%     99.14% # Histogram of number of active warp inst buffers at a given time
system.gpu.shader_cores0.lsq.warpInstBufActive::48       121465      0.03%     99.18% # Histogram of number of active warp inst buffers at a given time
system.gpu.shader_cores0.lsq.warpInstBufActive::49       151474      0.04%     99.21% # Histogram of number of active warp inst buffers at a given time
system.gpu.shader_cores0.lsq.warpInstBufActive::50       160048      0.04%     99.25% # Histogram of number of active warp inst buffers at a given time
system.gpu.shader_cores0.lsq.warpInstBufActive::51        62876      0.02%     99.27% # Histogram of number of active warp inst buffers at a given time
system.gpu.shader_cores0.lsq.warpInstBufActive::52        17148      0.00%     99.27% # Histogram of number of active warp inst buffers at a given time
system.gpu.shader_cores0.lsq.warpInstBufActive::53        44299      0.01%     99.29% # Histogram of number of active warp inst buffers at a given time
system.gpu.shader_cores0.lsq.warpInstBufActive::54         8574      0.00%     99.29% # Histogram of number of active warp inst buffers at a given time
system.gpu.shader_cores0.lsq.warpInstBufActive::55        75737      0.02%     99.31% # Histogram of number of active warp inst buffers at a given time
system.gpu.shader_cores0.lsq.warpInstBufActive::56        35725      0.01%     99.32% # Histogram of number of active warp inst buffers at a given time
system.gpu.shader_cores0.lsq.warpInstBufActive::57        15719      0.00%     99.32% # Histogram of number of active warp inst buffers at a given time
system.gpu.shader_cores0.lsq.warpInstBufActive::58        24293      0.01%     99.33% # Histogram of number of active warp inst buffers at a given time
system.gpu.shader_cores0.lsq.warpInstBufActive::59        42870      0.01%     99.34% # Histogram of number of active warp inst buffers at a given time
system.gpu.shader_cores0.lsq.warpInstBufActive::60        12861      0.00%     99.34% # Histogram of number of active warp inst buffers at a given time
system.gpu.shader_cores0.lsq.warpInstBufActive::61       190057      0.05%     99.39% # Histogram of number of active warp inst buffers at a given time
system.gpu.shader_cores0.lsq.warpInstBufActive::62        54302      0.01%     99.40% # Histogram of number of active warp inst buffers at a given time
system.gpu.shader_cores0.lsq.warpInstBufActive::63       152903      0.04%     99.44% # Histogram of number of active warp inst buffers at a given time
system.gpu.shader_cores0.lsq.warpInstBufActive::64      2223524      0.56%    100.00% # Histogram of number of active warp inst buffers at a given time
system.gpu.shader_cores0.lsq.warpInstBufActive::total    396795525                       # Histogram of number of active warp inst buffers at a given time
system.gpu.shader_cores0.lsq.cacheAccesses     0.078357                       # Average number of concurrent outstanding cache accesses
system.gpu.shader_cores0.lsq.writebackBlockedCycles         7384                       # Number of cycles blocked for core writeback stage
system.gpu.shader_cores0.lsq.mshrHitQueued         1031                       # Number of hits on blocked lines in MSHRs
system.gpu.shader_cores0.lsq.mshrsFullCycles            0                       # Number of cycles stalled waiting for an MSHR
system.gpu.shader_cores0.lsq.mshrsFullCount            0                       # Number of times MSHRs filled
system.gpu.shader_cores0.lsq.warpCoalescedAccesses::samples        59260                       # Number of coalesced accesses per warp instruction
system.gpu.shader_cores0.lsq.warpCoalescedAccesses::mean     1.079649                       # Number of coalesced accesses per warp instruction
system.gpu.shader_cores0.lsq.warpCoalescedAccesses::gmean     1.026616                       # Number of coalesced accesses per warp instruction
system.gpu.shader_cores0.lsq.warpCoalescedAccesses::stdev     0.902755                       # Number of coalesced accesses per warp instruction
system.gpu.shader_cores0.lsq.warpCoalescedAccesses::0            0      0.00%      0.00% # Number of coalesced accesses per warp instruction
system.gpu.shader_cores0.lsq.warpCoalescedAccesses::1        58165     98.15%     98.15% # Number of coalesced accesses per warp instruction
system.gpu.shader_cores0.lsq.warpCoalescedAccesses::2          281      0.47%     98.63% # Number of coalesced accesses per warp instruction
system.gpu.shader_cores0.lsq.warpCoalescedAccesses::3          193      0.33%     98.95% # Number of coalesced accesses per warp instruction
system.gpu.shader_cores0.lsq.warpCoalescedAccesses::4          179      0.30%     99.25% # Number of coalesced accesses per warp instruction
system.gpu.shader_cores0.lsq.warpCoalescedAccesses::5          122      0.21%     99.46% # Number of coalesced accesses per warp instruction
system.gpu.shader_cores0.lsq.warpCoalescedAccesses::6           87      0.15%     99.61% # Number of coalesced accesses per warp instruction
system.gpu.shader_cores0.lsq.warpCoalescedAccesses::7           60      0.10%     99.71% # Number of coalesced accesses per warp instruction
system.gpu.shader_cores0.lsq.warpCoalescedAccesses::8           65      0.11%     99.82% # Number of coalesced accesses per warp instruction
system.gpu.shader_cores0.lsq.warpCoalescedAccesses::9            8      0.01%     99.83% # Number of coalesced accesses per warp instruction
system.gpu.shader_cores0.lsq.warpCoalescedAccesses::10            0      0.00%     99.83% # Number of coalesced accesses per warp instruction
system.gpu.shader_cores0.lsq.warpCoalescedAccesses::11           52      0.09%     99.92% # Number of coalesced accesses per warp instruction
system.gpu.shader_cores0.lsq.warpCoalescedAccesses::12            0      0.00%     99.92% # Number of coalesced accesses per warp instruction
system.gpu.shader_cores0.lsq.warpCoalescedAccesses::13            0      0.00%     99.92% # Number of coalesced accesses per warp instruction
system.gpu.shader_cores0.lsq.warpCoalescedAccesses::14            0      0.00%     99.92% # Number of coalesced accesses per warp instruction
system.gpu.shader_cores0.lsq.warpCoalescedAccesses::15            0      0.00%     99.92% # Number of coalesced accesses per warp instruction
system.gpu.shader_cores0.lsq.warpCoalescedAccesses::16            0      0.00%     99.92% # Number of coalesced accesses per warp instruction
system.gpu.shader_cores0.lsq.warpCoalescedAccesses::17            0      0.00%     99.92% # Number of coalesced accesses per warp instruction
system.gpu.shader_cores0.lsq.warpCoalescedAccesses::18            0      0.00%     99.92% # Number of coalesced accesses per warp instruction
system.gpu.shader_cores0.lsq.warpCoalescedAccesses::19            9      0.02%     99.93% # Number of coalesced accesses per warp instruction
system.gpu.shader_cores0.lsq.warpCoalescedAccesses::20            0      0.00%     99.93% # Number of coalesced accesses per warp instruction
system.gpu.shader_cores0.lsq.warpCoalescedAccesses::21            3      0.01%     99.94% # Number of coalesced accesses per warp instruction
system.gpu.shader_cores0.lsq.warpCoalescedAccesses::22            6      0.01%     99.95% # Number of coalesced accesses per warp instruction
system.gpu.shader_cores0.lsq.warpCoalescedAccesses::23            0      0.00%     99.95% # Number of coalesced accesses per warp instruction
system.gpu.shader_cores0.lsq.warpCoalescedAccesses::24            0      0.00%     99.95% # Number of coalesced accesses per warp instruction
system.gpu.shader_cores0.lsq.warpCoalescedAccesses::25            6      0.01%     99.96% # Number of coalesced accesses per warp instruction
system.gpu.shader_cores0.lsq.warpCoalescedAccesses::26            3      0.01%     99.96% # Number of coalesced accesses per warp instruction
system.gpu.shader_cores0.lsq.warpCoalescedAccesses::27            0      0.00%     99.96% # Number of coalesced accesses per warp instruction
system.gpu.shader_cores0.lsq.warpCoalescedAccesses::28            0      0.00%     99.96% # Number of coalesced accesses per warp instruction
system.gpu.shader_cores0.lsq.warpCoalescedAccesses::29            0      0.00%     99.96% # Number of coalesced accesses per warp instruction
system.gpu.shader_cores0.lsq.warpCoalescedAccesses::30            6      0.01%     99.97% # Number of coalesced accesses per warp instruction
system.gpu.shader_cores0.lsq.warpCoalescedAccesses::31           12      0.02%     99.99% # Number of coalesced accesses per warp instruction
system.gpu.shader_cores0.lsq.warpCoalescedAccesses::32            3      0.01%    100.00% # Number of coalesced accesses per warp instruction
system.gpu.shader_cores0.lsq.warpCoalescedAccesses::total        59260                       # Number of coalesced accesses per warp instruction
system.gpu.shader_cores0.lsq.warpLatencyRead::samples        58462                       # Latency in cycles for whole warp to finish the read
system.gpu.shader_cores0.lsq.warpLatencyRead::mean    11.564452                       # Latency in cycles for whole warp to finish the read
system.gpu.shader_cores0.lsq.warpLatencyRead::gmean    11.234106                       # Latency in cycles for whole warp to finish the read
system.gpu.shader_cores0.lsq.warpLatencyRead::stdev    13.345505                       # Latency in cycles for whole warp to finish the read
system.gpu.shader_cores0.lsq.warpLatencyRead::0-127        58416     99.92%     99.92% # Latency in cycles for whole warp to finish the read
system.gpu.shader_cores0.lsq.warpLatencyRead::128-255           27      0.05%     99.97% # Latency in cycles for whole warp to finish the read
system.gpu.shader_cores0.lsq.warpLatencyRead::256-383            6      0.01%     99.98% # Latency in cycles for whole warp to finish the read
system.gpu.shader_cores0.lsq.warpLatencyRead::384-511            5      0.01%     99.99% # Latency in cycles for whole warp to finish the read
system.gpu.shader_cores0.lsq.warpLatencyRead::512-639            0      0.00%     99.99% # Latency in cycles for whole warp to finish the read
system.gpu.shader_cores0.lsq.warpLatencyRead::640-767            0      0.00%     99.99% # Latency in cycles for whole warp to finish the read
system.gpu.shader_cores0.lsq.warpLatencyRead::768-895            0      0.00%     99.99% # Latency in cycles for whole warp to finish the read
system.gpu.shader_cores0.lsq.warpLatencyRead::896-1023            6      0.01%    100.00% # Latency in cycles for whole warp to finish the read
system.gpu.shader_cores0.lsq.warpLatencyRead::1024-1151            2      0.00%    100.00% # Latency in cycles for whole warp to finish the read
system.gpu.shader_cores0.lsq.warpLatencyRead::1152-1279            0      0.00%    100.00% # Latency in cycles for whole warp to finish the read
system.gpu.shader_cores0.lsq.warpLatencyRead::1280-1407            0      0.00%    100.00% # Latency in cycles for whole warp to finish the read
system.gpu.shader_cores0.lsq.warpLatencyRead::1408-1535            0      0.00%    100.00% # Latency in cycles for whole warp to finish the read
system.gpu.shader_cores0.lsq.warpLatencyRead::1536-1663            0      0.00%    100.00% # Latency in cycles for whole warp to finish the read
system.gpu.shader_cores0.lsq.warpLatencyRead::1664-1791            0      0.00%    100.00% # Latency in cycles for whole warp to finish the read
system.gpu.shader_cores0.lsq.warpLatencyRead::1792-1919            0      0.00%    100.00% # Latency in cycles for whole warp to finish the read
system.gpu.shader_cores0.lsq.warpLatencyRead::1920-2047            0      0.00%    100.00% # Latency in cycles for whole warp to finish the read
system.gpu.shader_cores0.lsq.warpLatencyRead::total        58462                       # Latency in cycles for whole warp to finish the read
system.gpu.shader_cores0.lsq.warpLatencyWrite::samples          747                       # Latency in cycles for whole warp to finish the write
system.gpu.shader_cores0.lsq.warpLatencyWrite::mean   231.368139                       # Latency in cycles for whole warp to finish the write
system.gpu.shader_cores0.lsq.warpLatencyWrite::gmean    46.486704                       # Latency in cycles for whole warp to finish the write
system.gpu.shader_cores0.lsq.warpLatencyWrite::stdev   421.470275                       # Latency in cycles for whole warp to finish the write
system.gpu.shader_cores0.lsq.warpLatencyWrite::0-255          581     77.78%     77.78% # Latency in cycles for whole warp to finish the write
system.gpu.shader_cores0.lsq.warpLatencyWrite::256-511           25      3.35%     81.12% # Latency in cycles for whole warp to finish the write
system.gpu.shader_cores0.lsq.warpLatencyWrite::512-767           24      3.21%     84.34% # Latency in cycles for whole warp to finish the write
system.gpu.shader_cores0.lsq.warpLatencyWrite::768-1023           57      7.63%     91.97% # Latency in cycles for whole warp to finish the write
system.gpu.shader_cores0.lsq.warpLatencyWrite::1024-1279           39      5.22%     97.19% # Latency in cycles for whole warp to finish the write
system.gpu.shader_cores0.lsq.warpLatencyWrite::1280-1535            9      1.20%     98.39% # Latency in cycles for whole warp to finish the write
system.gpu.shader_cores0.lsq.warpLatencyWrite::1536-1791            5      0.67%     99.06% # Latency in cycles for whole warp to finish the write
system.gpu.shader_cores0.lsq.warpLatencyWrite::1792-2047            5      0.67%     99.73% # Latency in cycles for whole warp to finish the write
system.gpu.shader_cores0.lsq.warpLatencyWrite::2048-2303            2      0.27%    100.00% # Latency in cycles for whole warp to finish the write
system.gpu.shader_cores0.lsq.warpLatencyWrite::2304-2559            0      0.00%    100.00% # Latency in cycles for whole warp to finish the write
system.gpu.shader_cores0.lsq.warpLatencyWrite::2560-2815            0      0.00%    100.00% # Latency in cycles for whole warp to finish the write
system.gpu.shader_cores0.lsq.warpLatencyWrite::2816-3071            0      0.00%    100.00% # Latency in cycles for whole warp to finish the write
system.gpu.shader_cores0.lsq.warpLatencyWrite::3072-3327            0      0.00%    100.00% # Latency in cycles for whole warp to finish the write
system.gpu.shader_cores0.lsq.warpLatencyWrite::3328-3583            0      0.00%    100.00% # Latency in cycles for whole warp to finish the write
system.gpu.shader_cores0.lsq.warpLatencyWrite::3584-3839            0      0.00%    100.00% # Latency in cycles for whole warp to finish the write
system.gpu.shader_cores0.lsq.warpLatencyWrite::3840-4095            0      0.00%    100.00% # Latency in cycles for whole warp to finish the write
system.gpu.shader_cores0.lsq.warpLatencyWrite::total          747                       # Latency in cycles for whole warp to finish the write
system.gpu.shader_cores0.lsq.warpLatencyFence::samples          571                       # Latency in cycles for whole warp to finish the fence
system.gpu.shader_cores0.lsq.warpLatencyFence::mean     8.052539                       # Latency in cycles for whole warp to finish the fence
system.gpu.shader_cores0.lsq.warpLatencyFence::gmean     6.328741                       # Latency in cycles for whole warp to finish the fence
system.gpu.shader_cores0.lsq.warpLatencyFence::stdev    20.589063                       # Latency in cycles for whole warp to finish the fence
system.gpu.shader_cores0.lsq.warpLatencyFence::0-31          566     99.12%     99.12% # Latency in cycles for whole warp to finish the fence
system.gpu.shader_cores0.lsq.warpLatencyFence::32-63            1      0.18%     99.30% # Latency in cycles for whole warp to finish the fence
system.gpu.shader_cores0.lsq.warpLatencyFence::64-95            0      0.00%     99.30% # Latency in cycles for whole warp to finish the fence
system.gpu.shader_cores0.lsq.warpLatencyFence::96-127            0      0.00%     99.30% # Latency in cycles for whole warp to finish the fence
system.gpu.shader_cores0.lsq.warpLatencyFence::128-159            0      0.00%     99.30% # Latency in cycles for whole warp to finish the fence
system.gpu.shader_cores0.lsq.warpLatencyFence::160-191            0      0.00%     99.30% # Latency in cycles for whole warp to finish the fence
system.gpu.shader_cores0.lsq.warpLatencyFence::192-223            0      0.00%     99.30% # Latency in cycles for whole warp to finish the fence
system.gpu.shader_cores0.lsq.warpLatencyFence::224-255            2      0.35%     99.65% # Latency in cycles for whole warp to finish the fence
system.gpu.shader_cores0.lsq.warpLatencyFence::256-287            2      0.35%    100.00% # Latency in cycles for whole warp to finish the fence
system.gpu.shader_cores0.lsq.warpLatencyFence::288-319            0      0.00%    100.00% # Latency in cycles for whole warp to finish the fence
system.gpu.shader_cores0.lsq.warpLatencyFence::320-351            0      0.00%    100.00% # Latency in cycles for whole warp to finish the fence
system.gpu.shader_cores0.lsq.warpLatencyFence::352-383            0      0.00%    100.00% # Latency in cycles for whole warp to finish the fence
system.gpu.shader_cores0.lsq.warpLatencyFence::384-415            0      0.00%    100.00% # Latency in cycles for whole warp to finish the fence
system.gpu.shader_cores0.lsq.warpLatencyFence::416-447            0      0.00%    100.00% # Latency in cycles for whole warp to finish the fence
system.gpu.shader_cores0.lsq.warpLatencyFence::448-479            0      0.00%    100.00% # Latency in cycles for whole warp to finish the fence
system.gpu.shader_cores0.lsq.warpLatencyFence::480-511            0      0.00%    100.00% # Latency in cycles for whole warp to finish the fence
system.gpu.shader_cores0.lsq.warpLatencyFence::total          571                       # Latency in cycles for whole warp to finish the fence
system.gpu.shader_cores0.lsq.warpLatencyAtomic::samples           51                       # Latency in cycles for whole warp to finish the atomic
system.gpu.shader_cores0.lsq.warpLatencyAtomic::mean  1341.803922                       # Latency in cycles for whole warp to finish the atomic
system.gpu.shader_cores0.lsq.warpLatencyAtomic::gmean   894.936217                       # Latency in cycles for whole warp to finish the atomic
system.gpu.shader_cores0.lsq.warpLatencyAtomic::stdev   774.446822                       # Latency in cycles for whole warp to finish the atomic
system.gpu.shader_cores0.lsq.warpLatencyAtomic::0-255            6     11.76%     11.76% # Latency in cycles for whole warp to finish the atomic
system.gpu.shader_cores0.lsq.warpLatencyAtomic::256-511            4      7.84%     19.61% # Latency in cycles for whole warp to finish the atomic
system.gpu.shader_cores0.lsq.warpLatencyAtomic::512-767            4      7.84%     27.45% # Latency in cycles for whole warp to finish the atomic
system.gpu.shader_cores0.lsq.warpLatencyAtomic::768-1023            4      7.84%     35.29% # Latency in cycles for whole warp to finish the atomic
system.gpu.shader_cores0.lsq.warpLatencyAtomic::1024-1279            5      9.80%     45.10% # Latency in cycles for whole warp to finish the atomic
system.gpu.shader_cores0.lsq.warpLatencyAtomic::1280-1535            5      9.80%     54.90% # Latency in cycles for whole warp to finish the atomic
system.gpu.shader_cores0.lsq.warpLatencyAtomic::1536-1791            4      7.84%     62.75% # Latency in cycles for whole warp to finish the atomic
system.gpu.shader_cores0.lsq.warpLatencyAtomic::1792-2047            5      9.80%     72.55% # Latency in cycles for whole warp to finish the atomic
system.gpu.shader_cores0.lsq.warpLatencyAtomic::2048-2303            9     17.65%     90.20% # Latency in cycles for whole warp to finish the atomic
system.gpu.shader_cores0.lsq.warpLatencyAtomic::2304-2559            5      9.80%    100.00% # Latency in cycles for whole warp to finish the atomic
system.gpu.shader_cores0.lsq.warpLatencyAtomic::2560-2815            0      0.00%    100.00% # Latency in cycles for whole warp to finish the atomic
system.gpu.shader_cores0.lsq.warpLatencyAtomic::2816-3071            0      0.00%    100.00% # Latency in cycles for whole warp to finish the atomic
system.gpu.shader_cores0.lsq.warpLatencyAtomic::3072-3327            0      0.00%    100.00% # Latency in cycles for whole warp to finish the atomic
system.gpu.shader_cores0.lsq.warpLatencyAtomic::3328-3583            0      0.00%    100.00% # Latency in cycles for whole warp to finish the atomic
system.gpu.shader_cores0.lsq.warpLatencyAtomic::3584-3839            0      0.00%    100.00% # Latency in cycles for whole warp to finish the atomic
system.gpu.shader_cores0.lsq.warpLatencyAtomic::3840-4095            0      0.00%    100.00% # Latency in cycles for whole warp to finish the atomic
system.gpu.shader_cores0.lsq.warpLatencyAtomic::total           51                       # Latency in cycles for whole warp to finish the atomic
system.gpu.shader_cores0.lsq.tlbMissLatency::samples            0                       # Latency in cycles for TLB miss
system.gpu.shader_cores0.lsq.tlbMissLatency::mean          nan                       # Latency in cycles for TLB miss
system.gpu.shader_cores0.lsq.tlbMissLatency::gmean          nan                       # Latency in cycles for TLB miss
system.gpu.shader_cores0.lsq.tlbMissLatency::stdev          nan                       # Latency in cycles for TLB miss
system.gpu.shader_cores0.lsq.tlbMissLatency::0            0                       # Latency in cycles for TLB miss
system.gpu.shader_cores0.lsq.tlbMissLatency::1            0                       # Latency in cycles for TLB miss
system.gpu.shader_cores0.lsq.tlbMissLatency::2            0                       # Latency in cycles for TLB miss
system.gpu.shader_cores0.lsq.tlbMissLatency::3            0                       # Latency in cycles for TLB miss
system.gpu.shader_cores0.lsq.tlbMissLatency::4            0                       # Latency in cycles for TLB miss
system.gpu.shader_cores0.lsq.tlbMissLatency::5            0                       # Latency in cycles for TLB miss
system.gpu.shader_cores0.lsq.tlbMissLatency::6            0                       # Latency in cycles for TLB miss
system.gpu.shader_cores0.lsq.tlbMissLatency::7            0                       # Latency in cycles for TLB miss
system.gpu.shader_cores0.lsq.tlbMissLatency::8            0                       # Latency in cycles for TLB miss
system.gpu.shader_cores0.lsq.tlbMissLatency::9            0                       # Latency in cycles for TLB miss
system.gpu.shader_cores0.lsq.tlbMissLatency::10            0                       # Latency in cycles for TLB miss
system.gpu.shader_cores0.lsq.tlbMissLatency::11            0                       # Latency in cycles for TLB miss
system.gpu.shader_cores0.lsq.tlbMissLatency::12            0                       # Latency in cycles for TLB miss
system.gpu.shader_cores0.lsq.tlbMissLatency::13            0                       # Latency in cycles for TLB miss
system.gpu.shader_cores0.lsq.tlbMissLatency::14            0                       # Latency in cycles for TLB miss
system.gpu.shader_cores0.lsq.tlbMissLatency::15            0                       # Latency in cycles for TLB miss
system.gpu.shader_cores0.lsq.tlbMissLatency::total            0                       # Latency in cycles for TLB miss
system.gpu.shader_cores1.itb.hits                   0                       # Number of hits in this TLB
system.gpu.shader_cores1.itb.misses                 0                       # Number of misses in this TLB
system.gpu.shader_cores1.itb.hitRate              nan                       # Hit rate for this TLB
system.gpu.shader_cores1.local_loads                0                       # Number of loads from local space
system.gpu.shader_cores1.local_stores               0                       # Number of stores to local space
system.gpu.shader_cores1.shared_loads          283919                       # Number of loads from shared space
system.gpu.shader_cores1.shared_stores          27171                       # Number of stores to shared space
system.gpu.shader_cores1.param_kernel_loads       575860                       # Number of loads from kernel parameter space
system.gpu.shader_cores1.param_local_loads            0                       # Number of loads from local parameter space
system.gpu.shader_cores1.param_local_stores            0                       # Number of stores to local parameter space
system.gpu.shader_cores1.const_loads                0                       # Number of loads from constant space
system.gpu.shader_cores1.tex_loads                  0                       # Number of loads from texture space
system.gpu.shader_cores1.global_loads         1409983                       # Number of loads from global space
system.gpu.shader_cores1.global_stores           8515                       # Number of stores to global space
system.gpu.shader_cores1.surf_loads                 0                       # Number of loads from surface space
system.gpu.shader_cores1.generic_loads              0                       # Number of loads from generic spaces (global, shared, local)
system.gpu.shader_cores1.generic_stores             0                       # Number of stores to generic spaces (global, shared, local)
system.gpu.shader_cores1.inst_cache_requests           58                       # Number of instruction cache requests sent
system.gpu.shader_cores1.inst_cache_retries            0                       # Number of instruction cache retries
[...]
system.ruby.L1Cache_Controller.Data_Exclusive |        1344     74.05%     74.05% |           7      0.39%     74.44% |          59      3.25%     77.69% |         168      9.26%     86.94% |          61      3.36%     90.30% |           0      0.00%     90.30% |         176      9.70%    100.00%
system.ruby.L1Cache_Controller.Data_Exclusive::total         1815                      
system.ruby.L1Cache_Controller.DataS_fromL1 |           7      0.50%      0.50% |         159     11.43%     11.93% |         198     14.23%     26.17% |         418     30.05%     56.22% |         367     26.38%     82.60% |           0      0.00%     82.60% |         242     17.40%    100.00%
system.ruby.L1Cache_Controller.DataS_fromL1::total         1391                      
system.ruby.L1Cache_Controller.Data_all_Acks |        1527     11.38%     11.38% |        2152     16.03%     27.41% |        2635     19.63%     47.04% |        3745     27.90%     74.94% |        2963     22.07%     97.01% |           0      0.00%     97.01% |         401      2.99%    100.00%
system.ruby.L1Cache_Controller.Data_all_Acks::total        13423                      
system.ruby.L1Cache_Controller.Ack       |           2      0.18%      0.18% |         142     12.46%     12.63% |          94      8.25%     20.88% |         532     46.67%     67.54% |         316     27.72%     95.26% |           0      0.00%     95.26% |          54      4.74%    100.00%
system.ruby.L1Cache_Controller.Ack::total         1140                      
system.ruby.L1Cache_Controller.Ack_all   |           2      0.25%      0.25% |         105     13.04%     13.29% |          72      8.94%     22.24% |         318     39.50%     61.74% |         280     34.78%     96.52% |           0      0.00%     96.52% |          28      3.48%    100.00%
system.ruby.L1Cache_Controller.Ack_all::total          805                      
system.ruby.L1Cache_Controller.WB_Ack    |        1240     41.50%     41.50% |         240      8.03%     49.53% |         227      7.60%     57.13% |         435     14.56%     71.69% |         269      9.00%     80.69% |           0      0.00%     80.69% |         577     19.31%    100.00%
system.ruby.L1Cache_Controller.WB_Ack::total         2988                      
system.ruby.L1Cache_Controller.NP.Load   |        1336     14.88%     14.88% |        1371     15.27%     30.15% |        1875     20.88%     51.03% |        2332     25.97%     77.00% |        1641     18.28%     95.28% |           0      0.00%     95.28% |         424      4.72%    100.00%
system.ruby.L1Cache_Controller.NP.Load::total         8979                      
system.ruby.L1Cache_Controller.NP.Ifetch |        1094     81.58%     81.58% |          50      3.73%     85.31% |          58      4.33%     89.63% |          74      5.52%     95.15% |          65      4.85%    100.00% |           0      0.00%    100.00% |           0      0.00%    100.00%
system.ruby.L1Cache_Controller.NP.Ifetch::total         1341                      
system.ruby.L1Cache_Controller.NP.Store  |         433     13.59%     13.59% |         438     13.75%     27.34% |         502     15.76%     43.09% |         797     25.02%     68.11% |         593     18.61%     86.72% |           0      0.00%     86.72% |         423     13.28%    100.00%
system.ruby.L1Cache_Controller.NP.Store::total         3186                      
system.ruby.L1Cache_Controller.NP.Inv    |           0      0.00%      0.00% |          39     39.39%     39.39% |          16     16.16%     55.56% |          14     14.14%     69.70% |          29     29.29%     98.99% |           0      0.00%     98.99% |           1      1.01%    100.00%
system.ruby.L1Cache_Controller.NP.Inv::total           99                      
system.ruby.L1Cache_Controller.I.Load    |          15      1.61%      1.61% |         106     11.40%     13.01% |         142     15.27%     28.28% |         347     37.31%     65.59% |         320     34.41%    100.00% |           0      0.00%    100.00% |           0      0.00%    100.00%
system.ruby.L1Cache_Controller.I.Load::total          930                      
system.ruby.L1Cache_Controller.I.Store   |           0      0.00%      0.00% |         362     16.20%     16.20% |         327     14.63%     30.83% |         765     34.23%     65.06% |         781     34.94%    100.00% |           0      0.00%    100.00% |           0      0.00%    100.00%
system.ruby.L1Cache_Controller.I.Store::total         2235                      
system.ruby.L1Cache_Controller.I.L1_Replacement |          17      4.42%      4.42% |          47     12.21%     16.62% |          68     17.66%     34.29% |         118     30.65%     64.94% |         127     32.99%     97.92% |           0      0.00%     97.92% |           8      2.08%    100.00%
system.ruby.L1Cache_Controller.I.L1_Replacement::total          385                      
system.ruby.L1Cache_Controller.S.Load    |          31      0.02%      0.02% |       58992     29.17%     29.18% |       44807     22.16%     51.34% |       41468     20.50%     71.85% |       56940     28.15%    100.00% |           0      0.00%    100.00% |           0      0.00%    100.00%
system.ruby.L1Cache_Controller.S.Load::total       202238                      
system.ruby.L1Cache_Controller.S.Ifetch  |     2359896    100.00%    100.00% |           0      0.00%    100.00% |           0      0.00%    100.00% |           0      0.00%    100.00% |           0      0.00%    100.00% |           0      0.00%    100.00% |           0      0.00%    100.00%
system.ruby.L1Cache_Controller.S.Ifetch::total      2359896                      
system.ruby.L1Cache_Controller.S.Store   |           2      0.26%      0.26% |          96     12.58%     12.84% |          60      7.86%     20.71% |         334     43.77%     64.48% |         271     35.52%    100.00% |           0      0.00%    100.00% |           0      0.00%    100.00%
system.ruby.L1Cache_Controller.S.Store::total          763                      
system.ruby.L1Cache_Controller.S.Inv     |          82      7.57%      7.57% |         163     15.05%     22.62% |         186     17.17%     39.80% |         298     27.52%     67.31% |         345     31.86%     99.17% |           0      0.00%     99.17% |           9      0.83%    100.00%
system.ruby.L1Cache_Controller.S.Inv::total         1083                      
system.ruby.L1Cache_Controller.S.L1_Replacement |         850     11.14%     11.14% |        1197     15.69%     26.82% |        1667     21.85%     48.67% |        2158     28.28%     76.95% |        1505     19.72%     96.67% |           0      0.00%     96.67% |         254      3.33%    100.00%
system.ruby.L1Cache_Controller.S.L1_Replacement::total         7631                      
system.ruby.L1Cache_Controller.E.Load    |      137711     99.34%     99.34% |          10      0.01%     99.35% |         650      0.47%     99.81% |         164      0.12%     99.93% |          93      0.07%    100.00% |           0      0.00%    100.00% |           0      0.00%    100.00%
system.ruby.L1Cache_Controller.E.Load::total       138628                      
system.ruby.L1Cache_Controller.E.Store   |          72     61.54%     61.54% |           0      0.00%     61.54% |           1      0.85%     62.39% |          44     37.61%    100.00% |           0      0.00%    100.00% |           0      0.00%    100.00% |           0      0.00%    100.00%
system.ruby.L1Cache_Controller.E.Store::total          117                      
system.ruby.L1Cache_Controller.E.L1_Replacement |         895     78.51%     78.51% |           0      0.00%     78.51% |          12      1.05%     79.56% |          57      5.00%     84.56% |           0      0.00%     84.56% |           0      0.00%     84.56% |         176     15.44%    100.00%
system.ruby.L1Cache_Controller.E.L1_Replacement::total         1140                      
system.ruby.L1Cache_Controller.E.Fwd_GETX |           7     87.50%     87.50% |           0      0.00%     87.50% |           1     12.50%    100.00% |           0      0.00%    100.00% |           0      0.00%    100.00% |           0      0.00%    100.00% |           0      0.00%    100.00%
system.ruby.L1Cache_Controller.E.Fwd_GETX::total            8                      
system.ruby.L1Cache_Controller.E.Fwd_GETS |           1      0.55%      0.55% |           7      3.87%      4.42% |          45     24.86%     29.28% |          67     37.02%     66.30% |          61     33.70%    100.00% |           0      0.00%    100.00% |           0      0.00%    100.00%
system.ruby.L1Cache_Controller.E.Fwd_GETS::total          181                      
system.ruby.L1Cache_Controller.M.Load    |      168062     96.87%     96.87% |         689      0.40%     97.26% |        1407      0.81%     98.07% |        1998      1.15%     99.23% |        1342      0.77%    100.00% |           0      0.00%    100.00% |           0      0.00%    100.00%
system.ruby.L1Cache_Controller.M.Load::total       173498                      
system.ruby.L1Cache_Controller.M.Store   |      170332     94.57%     94.57% |        1916      1.06%     95.63% |        1979      1.10%     96.73% |        2889      1.60%     98.34% |        2997      1.66%    100.00% |           0      0.00%    100.00% |           0      0.00%    100.00%
system.ruby.L1Cache_Controller.M.Store::total       180113                      
system.ruby.L1Cache_Controller.M.L1_Replacement |         345     18.67%     18.67% |         240     12.99%     31.66% |         215     11.63%     43.29% |         378     20.45%     63.74% |         269     14.56%     78.30% |           0      0.00%     78.30% |         401     21.70%    100.00%
system.ruby.L1Cache_Controller.M.L1_Replacement::total         1848                      
system.ruby.L1Cache_Controller.M.Fwd_GETX |           1      0.03%      0.03% |         493     16.67%     16.71% |         526     17.79%     34.49% |         940     31.79%     66.28% |         997     33.72%    100.00% |           0      0.00%    100.00% |           0      0.00%    100.00%
system.ruby.L1Cache_Controller.M.Fwd_GETX::total         2957                      
system.ruby.L1Cache_Controller.M.Fwd_GETS |          79      6.53%      6.53% |         162     13.39%     19.92% |          57      4.71%     24.63% |         531     43.88%     68.51% |         366     30.25%     98.76% |           0      0.00%     98.76% |          15      1.24%    100.00%
system.ruby.L1Cache_Controller.M.Fwd_GETS::total         1210                      
system.ruby.L1Cache_Controller.IS.L1_Replacement |           0      0.00%      0.00% |           0      0.00%      0.00% |           0      0.00%      0.00% |           2      0.10%      0.10% |           0      0.00%      0.10% |           0      0.00%      0.10% |        2077     99.90%    100.00%
system.ruby.L1Cache_Controller.IS.L1_Replacement::total         2079                      
system.ruby.L1Cache_Controller.IS.Data_Exclusive |        1344     74.05%     74.05% |           7      0.39%     74.44% |          59      3.25%     77.69% |         168      9.26%     86.94% |          61      3.36%     90.30% |           0      0.00%     90.30% |         176      9.70%    100.00%
system.ruby.L1Cache_Controller.IS.Data_Exclusive::total         1815                      
system.ruby.L1Cache_Controller.IS.DataS_fromL1 |           7      0.50%      0.50% |         159     11.43%     11.93% |         198     14.23%     26.17% |         418     30.05%     56.22% |         367     26.38%     82.60% |           0      0.00%     82.60% |         242     17.40%    100.00%
system.ruby.L1Cache_Controller.IS.DataS_fromL1::total         1391                      
system.ruby.L1Cache_Controller.IS.Data_all_Acks |        1094     13.60%     13.60% |        1361     16.92%     30.52% |        1818     22.60%     53.12% |        2167     26.94%     80.06% |        1598     19.87%     99.93% |           0      0.00%     99.93% |           6      0.07%    100.00%
system.ruby.L1Cache_Controller.IS.Data_all_Acks::total         8044                      
system.ruby.L1Cache_Controller.IM.L1_Replacement |           0      0.00%      0.00% |          54      4.40%      4.40% |          37      3.02%      7.42% |          57      4.65%     12.06% |          58      4.73%     16.79% |           0      0.00%     16.79% |        1021     83.21%    100.00%
system.ruby.L1Cache_Controller.IM.L1_Replacement::total         1227                      
system.ruby.L1Cache_Controller.IM.Data   |           0      0.00%      0.00% |          15     18.99%     18.99% |          16     20.25%     39.24% |           2      2.53%     41.77% |          18     22.78%     64.56% |           0      0.00%     64.56% |          28     35.44%    100.00%
system.ruby.L1Cache_Controller.IM.Data::total           79                      
system.ruby.L1Cache_Controller.IM.Data_all_Acks |         433      8.05%      8.05% |         791     14.71%     22.76% |         817     15.19%     37.94% |        1578     29.34%     67.28% |        1365     25.38%     92.66% |           0      0.00%     92.66% |         395      7.34%    100.00%
system.ruby.L1Cache_Controller.IM.Data_all_Acks::total         5379                      
system.ruby.L1Cache_Controller.IM.Ack    |           0      0.00%      0.00% |           2      3.57%      3.57% |           0      0.00%      3.57% |           0      0.00%      3.57% |           0      0.00%      3.57% |           0      0.00%      3.57% |          54     96.43%    100.00%
system.ruby.L1Cache_Controller.IM.Ack::total           56                      
system.ruby.L1Cache_Controller.SM.Inv    |           0      0.00%      0.00% |           6     16.22%     16.22% |           4     10.81%     27.03% |          18     48.65%     75.68% |           9     24.32%    100.00% |           0      0.00%    100.00% |           0      0.00%    100.00%
system.ruby.L1Cache_Controller.SM.Inv::total           37                      
system.ruby.L1Cache_Controller.SM.L1_Replacement |           0      0.00%      0.00% |           0      0.00%      0.00% |           0      0.00%      0.00% |           0      0.00%      0.00% |           0      0.00%      0.00% |           0      0.00%      0.00% |           5    100.00%    100.00%
system.ruby.L1Cache_Controller.SM.L1_Replacement::total            5                      
system.ruby.L1Cache_Controller.SM.Ack    |           2      0.18%      0.18% |         140     12.92%     13.10% |          94      8.67%     21.77% |         532     49.08%     70.85% |         316     29.15%    100.00% |           0      0.00%    100.00% |           0      0.00%    100.00%
system.ruby.L1Cache_Controller.SM.Ack::total         1084                      
system.ruby.L1Cache_Controller.SM.Ack_all |           2      0.25%      0.25% |         105     13.04%     13.29% |          72      8.94%     22.24% |         318     39.50%     61.74% |         280     34.78%     96.52% |           0      0.00%     96.52% |          28      3.48%    100.00%
system.ruby.L1Cache_Controller.SM.Ack_all::total          805                      
system.ruby.L1Cache_Controller.M_I.Ifetch |           1    100.00%    100.00% |           0      0.00%    100.00% |           0      0.00%    100.00% |           0      0.00%    100.00% |           0      0.00%    100.00% |           0      0.00%    100.00% |           0      0.00%    100.00%
system.ruby.L1Cache_Controller.M_I.Ifetch::total            1                      
system.ruby.L1Cache_Controller.M_I.Store |           0      0.00%      0.00% |           0      0.00%      0.00% |           0      0.00%      0.00% |           2    100.00%    100.00% |           0      0.00%    100.00% |           0      0.00%    100.00% |           0      0.00%    100.00%
system.ruby.L1Cache_Controller.M_I.Store::total            2                      
system.ruby.L1Cache_Controller.M_I.WB_Ack |        1240     41.50%     41.50% |         240      8.03%     49.53% |         227      7.60%     57.13% |         435     14.56%     71.69% |         269      9.00%     80.69% |           0      0.00%     80.69% |         577     19.31%    100.00%
system.ruby.L1Cache_Controller.M_I.WB_Ack::total         2988                      
system.ruby.L2Cache_Controller.L1_GET_INSTR         1341      0.00%      0.00%
system.ruby.L2Cache_Controller.L1_GETS           9957      0.00%      0.00%
system.ruby.L2Cache_Controller.L1_GETX           6113      0.00%      0.00%
system.ruby.L2Cache_Controller.L1_UPGRADE          767      0.00%      0.00%
system.ruby.L2Cache_Controller.L1_PUTX           2988      0.00%      0.00%
system.ruby.L2Cache_Controller.Mem_Data          2820      0.00%      0.00%
system.ruby.L2Cache_Controller.WB_Data           1210      0.00%      0.00%
system.ruby.L2Cache_Controller.WB_Data_clean          181      0.00%      0.00%
system.ruby.L2Cache_Controller.Unblock           1391      0.00%      0.00%
system.ruby.L2Cache_Controller.Exclusive_Unblock         7999      0.00%      0.00%
system.ruby.L2Cache_Controller.NP.L1_GET_INSTR          637      0.00%      0.00%
system.ruby.L2Cache_Controller.NP.L1_GETS          636      0.00%      0.00%
system.ruby.L2Cache_Controller.NP.L1_GETX         1547      0.00%      0.00%
system.ruby.L2Cache_Controller.SS.L1_GET_INSTR          597      0.00%      0.00%
system.ruby.L2Cache_Controller.SS.L1_GETS         6703      0.00%      0.00%
system.ruby.L2Cache_Controller.SS.L1_GETX          134      0.00%      0.00%
system.ruby.L2Cache_Controller.SS.L1_UPGRADE          726      0.00%      0.00%
system.ruby.L2Cache_Controller.M.L1_GET_INSTR            5      0.00%      0.00%
system.ruby.L2Cache_Controller.M.L1_GETS         1179      0.00%      0.00%
system.ruby.L2Cache_Controller.M.L1_GETX          812      0.00%      0.00%
system.ruby.L2Cache_Controller.MT.L1_GETS         1391      0.00%      0.00%
system.ruby.L2Cache_Controller.MT.L1_GETX         2965      0.00%      0.00%
system.ruby.L2Cache_Controller.MT.L1_PUTX         2988      0.00%      0.00%
system.ruby.L2Cache_Controller.ISS.Mem_Data          636      0.00%      0.00%
system.ruby.L2Cache_Controller.IS.L1_GET_INSTR          102      0.00%      0.00%
system.ruby.L2Cache_Controller.IS.Mem_Data          637      0.00%      0.00%
system.ruby.L2Cache_Controller.IM.L1_GETX            2      0.00%      0.00%
system.ruby.L2Cache_Controller.IM.Mem_Data         1547      0.00%      0.00%
system.ruby.L2Cache_Controller.SS_MB.L1_GETS            9      0.00%      0.00%
system.ruby.L2Cache_Controller.SS_MB.L1_GETX           14      0.00%      0.00%
system.ruby.L2Cache_Controller.SS_MB.L1_UPGRADE           36      0.00%      0.00%
system.ruby.L2Cache_Controller.SS_MB.Exclusive_Unblock          860      0.00%      0.00%
system.ruby.L2Cache_Controller.MT_MB.L1_GETS           16      0.00%      0.00%
system.ruby.L2Cache_Controller.MT_MB.L1_GETX          625      0.00%      0.00%
system.ruby.L2Cache_Controller.MT_MB.Exclusive_Unblock         7139      0.00%      0.00%
system.ruby.L2Cache_Controller.MT_IIB.L1_GETS           23      0.00%      0.00%
system.ruby.L2Cache_Controller.MT_IIB.L1_GETX           14      0.00%      0.00%
system.ruby.L2Cache_Controller.MT_IIB.L1_UPGRADE            2      0.00%      0.00%
system.ruby.L2Cache_Controller.MT_IIB.WB_Data          138      0.00%      0.00%
system.ruby.L2Cache_Controller.MT_IIB.WB_Data_clean           14      0.00%      0.00%
system.ruby.L2Cache_Controller.MT_IIB.Unblock         1239      0.00%      0.00%
system.ruby.L2Cache_Controller.MT_IB.L1_UPGRADE            3      0.00%      0.00%
system.ruby.L2Cache_Controller.MT_IB.WB_Data         1072      0.00%      0.00%
system.ruby.L2Cache_Controller.MT_IB.WB_Data_clean          167      0.00%      0.00%
system.ruby.L2Cache_Controller.MT_SB.Unblock          152      0.00%      0.00%

---------- End Simulation Statistics   ----------
