
---------- Begin Simulation Statistics ----------
sim_seconds                                  0.002733                       # Number of seconds simulated
sim_ticks                                  2733170000                       # Number of ticks simulated
final_tick                                 2733170000                       # Number of ticks from beginning of simulation (restored from checkpoints and never reset)
sim_freq                                 1000000000000                       # Frequency of simulated ticks
host_inst_rate                                  12850                       # Simulator instruction rate (inst/s)
host_op_rate                                    24740                       # Simulator op (including micro ops) rate (op/s)
host_tick_rate                              117682035                       # Simulator tick rate (ticks/s)
host_mem_usage                                4528372                       # Number of bytes of host memory used
host_seconds                                    23.23                       # Real time elapsed on the host
sim_insts                                      298436                       # Number of instructions simulated
sim_ops                                        574581                       # Number of ops (including micro ops) simulated
system.voltage_domain.voltage                       1                       # Voltage in Volts
system.clk_domain.clock                          1000                       # Clock period in ticks
system.mem_ctrls.clk_domain.clock                2500                       # Clock period in ticks
system.mem_ctrls.bytes_read::ruby.dir_cntrl0     14503296                       # Number of bytes read from this memory
system.mem_ctrls.bytes_read::total           14503296                       # Number of bytes read from this memory
system.mem_ctrls.bytes_written::ruby.dir_cntrl0     28261248                       # Number of bytes written to this memory
system.mem_ctrls.bytes_written::total        28261248                       # Number of bytes written to this memory
system.mem_ctrls.num_reads::ruby.dir_cntrl0       113307                       # Number of read requests responded to by this memory
system.mem_ctrls.num_reads::total              113307                       # Number of read requests responded to by this memory
system.mem_ctrls.num_writes::ruby.dir_cntrl0       220791                       # Number of write requests responded to by this memory
system.mem_ctrls.num_writes::total             220791                       # Number of write requests responded to by this memory
system.mem_ctrls.bw_read::ruby.dir_cntrl0   5306400992                       # Total read bandwidth from this memory (bytes/s)
system.mem_ctrls.bw_read::total            5306400992                       # Total read bandwidth from this memory (bytes/s)
system.mem_ctrls.bw_write::ruby.dir_cntrl0  10340098860                       # Write bandwidth from this memory (bytes/s)
system.mem_ctrls.bw_write::total          10340098860                       # Write bandwidth from this memory (bytes/s)
system.mem_ctrls.bw_total::ruby.dir_cntrl0  15646499852                       # Total bandwidth to/from this memory (bytes/s)
system.mem_ctrls.bw_total::total          15646499852                       # Total bandwidth to/from this memory (bytes/s)
system.mem_ctrls.memReq                        334098                       # Total number of memory requests
system.mem_ctrls.memRead                       113307                       # Number of memory reads
system.mem_ctrls.memWrite                      220791                       # Number of memory writes
system.mem_ctrls.memRefresh                     19690                       # Number of memory refreshes
system.mem_ctrls.memWaitCycles               20217478                       # Delay stalled at the head of the bank queue
system.mem_ctrls.memInputQ                     491444                       # Delay in the input queue
system.mem_ctrls.memBankQ                   106920612                       # Delay behind the head of the bank queue
system.mem_ctrls.totalStalls                127629534                       # Total number of stall cycles
system.mem_ctrls.stallsPerReq              382.012266                       # Expected number of stall cycles per request
system.mem_ctrls.memBankBusy                  3096867                       # memory stalls due to busy bank
system.mem_ctrls.memBusBusy                   5298987                       # memory stalls due to busy bus
system.mem_ctrls.memReadWriteBusy              885944                       # memory stalls due to read write turnaround
system.mem_ctrls.memDataBusBusy                133487                       # memory stalls due to read read turnaround
system.mem_ctrls.memArbWait                   4522593                       # memory stalls due to arbitration
system.mem_ctrls.memNotOld                    6279600                       # memory stalls due to anti starvation
system.mem_ctrls.memBankCount            |        9070      2.71%      2.71% |       10530      3.15%      5.87% |       10531      3.15%      9.02% |       10529      3.15%     12.17% |       10528      3.15%     15.32% |       10524      3.15%     18.47% |       10525      3.15%     21.62% |       10524      3.15%     24.77% |       10527      3.15%     27.92% |       10526      3.15%     31.07% |       10523      3.15%     34.22% |       10526      3.15%     37.37% |       10525      3.15%     40.52% |       10537      3.15%     43.68% |       10554      3.16%     46.84% |       10515      3.15%     49.98% |        9077      2.72%     52.70% |       10537      3.15%     55.85% |       10539      3.15%     59.01% |       10535      3.15%     62.16% |       10531      3.15%     65.31% |       10532      3.15%     68.47% |       10533      3.15%     71.62% |       10534      3.15%     74.77% |       10538      3.15%     77.93% |       10528      3.15%     81.08% |       10529      3.15%     84.23% |       10531      3.15%     87.38% |       10533      3.15%     90.53% |       10546      3.16%     93.69% |       10567      3.16%     96.85% |       10514      3.15%    100.00% # Number of accesses per bank
system.mem_ctrls.memBankCount::total           334098                       # Number of accesses per bank
system.ruby_clk_domain.clock                      500                       # Clock period in ticks
system.ruby.phys_mem.bytes_read::cpu.inst      3175368                       # Number of bytes read from this memory
system.ruby.phys_mem.bytes_read::cpu.data       395050                       # Number of bytes read from this memory
system.ruby.phys_mem.bytes_read::gpu.ce      14352384                       # Number of bytes read from this memory
system.ruby.phys_mem.bytes_read::total       17922802                       # Number of bytes read from this memory
system.ruby.phys_mem.bytes_inst_read::cpu.inst      3175368                       # Number of instructions bytes read from this memory
system.ruby.phys_mem.bytes_inst_read::total      3175368                       # Number of instructions bytes read from this memory
system.ruby.phys_mem.bytes_written::cpu.data       275885                       # Number of bytes written to this memory
system.ruby.phys_mem.bytes_written::gpu.ce     14352384                       # Number of bytes written to this memory
system.ruby.phys_mem.bytes_written::total     14628269                       # Number of bytes written to this memory
system.ruby.phys_mem.num_reads::cpu.inst       396921                       # Number of read requests responded to by this memory
system.ruby.phys_mem.num_reads::cpu.data        65824                       # Number of read requests responded to by this memory
system.ruby.phys_mem.num_reads::gpu.ce         112139                       # Number of read requests responded to by this memory
system.ruby.phys_mem.num_reads::total          574884                       # Number of read requests responded to by this memory
system.ruby.phys_mem.num_writes::cpu.data        42747                       # Number of write requests responded to by this memory
system.ruby.phys_mem.num_writes::gpu.ce        112139                       # Number of write requests responded to by this memory
system.ruby.phys_mem.num_writes::total         154886                       # Number of write requests responded to by this memory
system.ruby.phys_mem.bw_read::cpu.inst     1161789424                       # Total read bandwidth from this memory (bytes/s)
system.ruby.phys_mem.bw_read::cpu.data      144539125                       # Total read bandwidth from this memory (bytes/s)
system.ruby.phys_mem.bw_read::gpu.ce       5251185986                       # Total read bandwidth from this memory (bytes/s)
system.ruby.phys_mem.bw_read::total        6557514534                       # Total read bandwidth from this memory (bytes/s)
system.ruby.phys_mem.bw_inst_read::cpu.inst   1161789424                       # Instruction read bandwidth from this memory (bytes/s)
system.ruby.phys_mem.bw_inst_read::total   1161789424                       # Instruction read bandwidth from this memory (bytes/s)
system.ruby.phys_mem.bw_write::cpu.data     100939568                       # Write bandwidth from this memory (bytes/s)
system.ruby.phys_mem.bw_write::gpu.ce      5251185986                       # Write bandwidth from this memory (bytes/s)
system.ruby.phys_mem.bw_write::total       5352125554                       # Write bandwidth from this memory (bytes/s)
system.ruby.phys_mem.bw_total::cpu.inst    1161789424                       # Total bandwidth to/from this memory (bytes/s)
system.ruby.phys_mem.bw_total::cpu.data     245478693                       # Total bandwidth to/from this memory (bytes/s)
system.ruby.phys_mem.bw_total::gpu.ce     10502371971                       # Total bandwidth to/from this memory (bytes/s)
system.ruby.phys_mem.bw_total::total      11909640088                       # Total bandwidth to/from this memory (bytes/s)
system.cpu_voltage_domain.voltage                   1                       # Voltage in Volts
system.cpu_clk_domain.clock                       500                       # Clock period in ticks
system.cpu.apic_clk_domain.clock                 8000                       # Clock period in ticks
system.cpu.workload.num_syscalls                   68                       # Number of system calls
system.cpu.numCycles                          5466340                       # number of cpu cycles simulated
system.cpu.numWorkItemsStarted                      0                       # number of work items this cpu started
system.cpu.numWorkItemsCompleted                    0                       # number of work items this cpu completed
system.cpu.committedInsts                      298436                       # Number of instructions committed
system.cpu.committedOps                        574581                       # Number of ops (including micro ops) committed
system.cpu.num_int_alu_accesses                565346                       # Number of integer alu accesses
system.cpu.num_fp_alu_accesses                  10475                       # Number of float alu accesses
system.cpu.num_func_calls                        9808                       # number of times a function call or return occured
system.cpu.num_conditional_control_insts        51184                       # number of instructions that are conditional controls
system.cpu.num_int_insts                       565346                       # number of integer instructions
system.cpu.num_fp_insts                         10475                       # number of float instructions
system.cpu.num_int_register_reads             1088736                       # number of times the integer registers were read
system.cpu.num_int_register_writes             459530                       # number of times the integer registers were written
system.cpu.num_fp_register_reads                17506                       # number of times the floating registers were read
system.cpu.num_fp_register_writes                8362                       # number of times the floating registers were written
system.cpu.num_cc_register_reads               340568                       # number of times the CC registers were read
system.cpu.num_cc_register_writes              204445                       # number of times the CC registers were written
system.cpu.num_mem_refs                        108570                       # number of memory refs
system.cpu.num_load_insts                       65823                       # Number of load instructions
system.cpu.num_store_insts                      42747                       # Number of store instructions
system.cpu.num_idle_cycles               3768955.044621                       # Number of idle cycles
system.cpu.num_busy_cycles               1697384.955379                       # Number of busy cycles
system.cpu.not_idle_fraction                 0.310516                       # Percentage of non-idle cycles
system.cpu.idle_fraction                     0.689484                       # Percentage of idle cycles
system.cpu.Branches                             65659                       # Number of branches fetched
system.cpu.op_class::No_OpClass                  2005      0.35%      0.35% # Class of executed instruction
system.cpu.op_class::IntAlu                    455064     79.20%     79.55% # Class of executed instruction
system.cpu.op_class::IntMult                      700      0.12%     79.67% # Class of executed instruction
system.cpu.op_class::IntDiv                      1394      0.24%     79.91% # Class of executed instruction
system.cpu.op_class::FloatAdd                    6848      1.19%     81.10% # Class of executed instruction
system.cpu.op_class::FloatCmp                       0      0.00%     81.10% # Class of executed instruction
system.cpu.op_class::FloatCvt                       0      0.00%     81.10% # Class of executed instruction
system.cpu.op_class::FloatMult                      0      0.00%     81.10% # Class of executed instruction
system.cpu.op_class::FloatDiv                       0      0.00%     81.10% # Class of executed instruction
system.cpu.op_class::FloatSqrt                      0      0.00%     81.10% # Class of executed instruction
system.cpu.op_class::SimdAdd                        0      0.00%     81.10% # Class of executed instruction
system.cpu.op_class::SimdAddAcc                     0      0.00%     81.10% # Class of executed instruction
system.cpu.op_class::SimdAlu                        0      0.00%     81.10% # Class of executed instruction
system.cpu.op_class::SimdCmp                        0      0.00%     81.10% # Class of executed instruction
system.cpu.op_class::SimdCvt                        0      0.00%     81.10% # Class of executed instruction
system.cpu.op_class::SimdMisc                       0      0.00%     81.10% # Class of executed instruction
system.cpu.op_class::SimdMult                       0      0.00%     81.10% # Class of executed instruction
system.cpu.op_class::SimdMultAcc                    0      0.00%     81.10% # Class of executed instruction
system.cpu.op_class::SimdShift                      0      0.00%     81.10% # Class of executed instruction
system.cpu.op_class::SimdShiftAcc                   0      0.00%     81.10% # Class of executed instruction
system.cpu.op_class::SimdSqrt                       0      0.00%     81.10% # Class of executed instruction
system.cpu.op_class::SimdFloatAdd                   0      0.00%     81.10% # Class of executed instruction
system.cpu.op_class::SimdFloatAlu                   0      0.00%     81.10% # Class of executed instruction
system.cpu.op_class::SimdFloatCmp                   0      0.00%     81.10% # Class of executed instruction
system.cpu.op_class::SimdFloatCvt                   0      0.00%     81.10% # Class of executed instruction
system.cpu.op_class::SimdFloatDiv                   0      0.00%     81.10% # Class of executed instruction
system.cpu.op_class::SimdFloatMisc                  0      0.00%     81.10% # Class of executed instruction
system.cpu.op_class::SimdFloatMult                  0      0.00%     81.10% # Class of executed instruction
system.cpu.op_class::SimdFloatMultAcc               0      0.00%     81.10% # Class of executed instruction
system.cpu.op_class::SimdFloatSqrt                  0      0.00%     81.10% # Class of executed instruction
system.cpu.op_class::MemRead                    65823     11.46%     92.56% # Class of executed instruction
system.cpu.op_class::MemWrite                   42747      7.44%    100.00% # Class of executed instruction
system.cpu.op_class::IprAccess                      0      0.00%    100.00% # Class of executed instruction
system.cpu.op_class::InstPrefetch                   0      0.00%    100.00% # Class of executed instruction
system.cpu.op_class::total                     574581                       # Class of executed instruction
system.gpu.clk_domain.voltage_domain.voltage            1                       # Voltage in Volts
system.gpu.clk_domain.clock                      1429                       # Clock period in ticks
system.gpu.dram_wrapper.clk_domain.clock          541                       # Clock period in ticks
system.gpu.icnt_wrapper.clk_domain.clock         2858                       # Clock period in ticks
system.ruby.outstanding_req_hist::bucket_size           16                      
system.ruby.outstanding_req_hist::max_bucket          159                      
system.ruby.outstanding_req_hist::samples       729770                      
system.ruby.outstanding_req_hist::mean      39.734035                      
system.ruby.outstanding_req_hist::gmean      4.423438                      
system.ruby.outstanding_req_hist::stdev     58.341840                      
system.ruby.outstanding_req_hist         |      505822     69.31%     69.31% |         366      0.05%     69.36% |         353      0.05%     69.41% |         422      0.06%     69.47% |         474      0.06%     69.53% |         467      0.06%     69.60% |         478      0.07%     69.66% |        6509      0.89%     70.56% |      214879     29.44%    100.00% |           0      0.00%    100.00%
system.ruby.outstanding_req_hist::total        729770                      
system.ruby.latency_hist::bucket_size             512                      
system.ruby.latency_hist::max_bucket             5119                      
system.ruby.latency_hist::samples              729770                      
system.ruby.latency_hist::mean             634.540151                      
system.ruby.latency_hist::gmean              9.843465                      
system.ruby.latency_hist::stdev           1147.847346                      
system.ruby.latency_hist                 |      540271     74.03%     74.03% |       35839      4.91%     78.94% |       12757      1.75%     80.69% |        6213      0.85%     81.54% |       23410      3.21%     84.75% |       58197      7.97%     92.73% |       47686      6.53%     99.26% |        5286      0.72%     99.98% |         111      0.02%    100.00% |           0      0.00%    100.00%
system.ruby.latency_hist::total                729770                      
system.ruby.hit_latency_hist::bucket_size          512                      
system.ruby.hit_latency_hist::max_bucket         5119                      
system.ruby.hit_latency_hist::samples          725103                      
system.ruby.hit_latency_hist::mean         637.681009                      
system.ruby.hit_latency_hist::gmean          9.673853                      
system.ruby.hit_latency_hist::stdev       1150.865388                      
system.ruby.hit_latency_hist             |      535604     73.87%     73.87% |       35839      4.94%     78.81% |       12757      1.76%     80.57% |        6213      0.86%     81.42% |       23410      3.23%     84.65% |       58197      8.03%     92.68% |       47686      6.58%     99.26% |        5286      0.73%     99.98% |         111      0.02%    100.00% |           0      0.00%    100.00%
system.ruby.hit_latency_hist::total            725103                      
system.ruby.miss_latency_hist::bucket_size           32                      
system.ruby.miss_latency_hist::max_bucket          319                      
system.ruby.miss_latency_hist::samples           4667                      
system.ruby.miss_latency_hist::mean        146.550889                      
system.ruby.miss_latency_hist::gmean       146.535267                      
system.ruby.miss_latency_hist::stdev         2.252144                      
system.ruby.miss_latency_hist            |           0      0.00%      0.00% |           0      0.00%      0.00% |           0      0.00%      0.00% |           0      0.00%      0.00% |        4653     99.70%     99.70% |          10      0.21%     99.91% |           4      0.09%    100.00% |           0      0.00%    100.00% |           0      0.00%    100.00% |           0      0.00%    100.00%
system.ruby.miss_latency_hist::total             4667                      
system.gpu.shader_mmu.numPagefaults                 0                       # Number of Pagefaults
system.gpu.shader_mmu.numPagewalks              10270                       # Number of Pagewalks
system.gpu.shader_mmu.totalRequests             10270                       # Total number of requests
system.gpu.shader_mmu.l2hits                        0                       # Hits in the shared L2
system.gpu.shader_mmu.prefetchHits                  0                       # Number of prefetch hits
system.gpu.shader_mmu.numPrefetches                 0                       # Number of prefetchs
system.gpu.shader_mmu.prefetchFaults                0                       # Number of faults caused by prefetches
system.gpu.shader_mmu.pagefaultLatency::samples            0                       # Latency to complete the pagefault
system.gpu.shader_mmu.pagefaultLatency::mean          nan                       # Latency to complete the pagefault
system.gpu.shader_mmu.pagefaultLatency::gmean          nan                       # Latency to complete the pagefault
system.gpu.shader_mmu.pagefaultLatency::stdev          nan                       # Latency to complete the pagefault
system.gpu.shader_mmu.pagefaultLatency::0            0                       # Latency to complete the pagefault
system.gpu.shader_mmu.pagefaultLatency::1            0                       # Latency to complete the pagefault
system.gpu.shader_mmu.pagefaultLatency::2            0                       # Latency to complete the pagefault
system.gpu.shader_mmu.pagefaultLatency::3            0                       # Latency to complete the pagefault
system.gpu.shader_mmu.pagefaultLatency::4            0                       # Latency to complete the pagefault
system.gpu.shader_mmu.pagefaultLatency::5            0                       # Latency to complete the pagefault
system.gpu.shader_mmu.pagefaultLatency::6            0                       # Latency to complete the pagefault
system.gpu.shader_mmu.pagefaultLatency::7            0                       # Latency to complete the pagefault
system.gpu.shader_mmu.pagefaultLatency::8            0                       # Latency to complete the pagefault
system.gpu.shader_mmu.pagefaultLatency::9            0                       # Latency to complete the pagefault
system.gpu.shader_mmu.pagefaultLatency::10            0                       # Latency to complete the pagefault
system.gpu.shader_mmu.pagefaultLatency::11            0                       # Latency to complete the pagefault
system.gpu.shader_mmu.pagefaultLatency::12            0                       # Latency to complete the pagefault
system.gpu.shader_mmu.pagefaultLatency::13            0                       # Latency to complete the pagefault
system.gpu.shader_mmu.pagefaultLatency::14            0                       # Latency to complete the pagefault
system.gpu.shader_mmu.pagefaultLatency::15            0                       # Latency to complete the pagefault
system.gpu.shader_mmu.pagefaultLatency::16            0                       # Latency to complete the pagefault
system.gpu.shader_mmu.pagefaultLatency::17            0                       # Latency to complete the pagefault
system.gpu.shader_mmu.pagefaultLatency::18            0                       # Latency to complete the pagefault
system.gpu.shader_mmu.pagefaultLatency::19            0                       # Latency to complete the pagefault
system.gpu.shader_mmu.pagefaultLatency::20            0                       # Latency to complete the pagefault
system.gpu.shader_mmu.pagefaultLatency::21            0                       # Latency to complete the pagefault
system.gpu.shader_mmu.pagefaultLatency::22            0                       # Latency to complete the pagefault
system.gpu.shader_mmu.pagefaultLatency::23            0                       # Latency to complete the pagefault
system.gpu.shader_mmu.pagefaultLatency::24            0                       # Latency to complete the pagefault
system.gpu.shader_mmu.pagefaultLatency::25            0                       # Latency to complete the pagefault
system.gpu.shader_mmu.pagefaultLatency::26            0                       # Latency to complete the pagefault
system.gpu.shader_mmu.pagefaultLatency::27            0                       # Latency to complete the pagefault
system.gpu.shader_mmu.pagefaultLatency::28            0                       # Latency to complete the pagefault
system.gpu.shader_mmu.pagefaultLatency::29            0                       # Latency to complete the pagefault
system.gpu.shader_mmu.pagefaultLatency::30            0                       # Latency to complete the pagefault
system.gpu.shader_mmu.pagefaultLatency::31            0                       # Latency to complete the pagefault
system.gpu.shader_mmu.pagefaultLatency::total            0                       # Latency to complete the pagefault
system.gpu.shader_mmu.concurrentWalks::samples        10270                       # Number of outstanding walks
system.gpu.shader_mmu.concurrentWalks::mean            0                       # Number of outstanding walks
system.gpu.shader_mmu.concurrentWalks::gmean            0                       # Number of outstanding walks
system.gpu.shader_mmu.concurrentWalks::stdev            0                       # Number of outstanding walks
system.gpu.shader_mmu.concurrentWalks::0        10270    100.00%    100.00% # Number of outstanding walks
system.gpu.shader_mmu.concurrentWalks::1            0      0.00%    100.00% # Number of outstanding walks
system.gpu.shader_mmu.concurrentWalks::2            0      0.00%    100.00% # Number of outstanding walks
system.gpu.shader_mmu.concurrentWalks::3            0      0.00%    100.00% # Number of outstanding walks
system.gpu.shader_mmu.concurrentWalks::4            0      0.00%    100.00% # Number of outstanding walks
system.gpu.shader_mmu.concurrentWalks::5            0      0.00%    100.00% # Number of outstanding walks
system.gpu.shader_mmu.concurrentWalks::6            0      0.00%    100.00% # Number of outstanding walks
system.gpu.shader_mmu.concurrentWalks::7            0      0.00%    100.00% # Number of outstanding walks
system.gpu.shader_mmu.concurrentWalks::8            0      0.00%    100.00% # Number of outstanding walks
system.gpu.shader_mmu.concurrentWalks::9            0      0.00%    100.00% # Number of outstanding walks
system.gpu.shader_mmu.concurrentWalks::10            0      0.00%    100.00% # Number of outstanding walks
system.gpu.shader_mmu.concurrentWalks::11            0      0.00%    100.00% # Number of outstanding walks
system.gpu.shader_mmu.concurrentWalks::12            0      0.00%    100.00% # Number of outstanding walks
system.gpu.shader_mmu.concurrentWalks::13            0      0.00%    100.00% # Number of outstanding walks
system.gpu.shader_mmu.concurrentWalks::14            0      0.00%    100.00% # Number of outstanding walks
system.gpu.shader_mmu.concurrentWalks::15            0      0.00%    100.00% # Number of outstanding walks
system.gpu.shader_mmu.concurrentWalks::total        10270                       # Number of outstanding walks
system.gpu.shader_mmu.pagewalkLatency::samples        10270                       # Latency to complete the pagewalk
system.gpu.shader_mmu.pagewalkLatency::mean            0                       # Latency to complete the pagewalk
system.gpu.shader_mmu.pagewalkLatency::gmean            0                       # Latency to complete the pagewalk
system.gpu.shader_mmu.pagewalkLatency::stdev            0                       # Latency to complete the pagewalk
system.gpu.shader_mmu.pagewalkLatency::0        10270    100.00%    100.00% # Latency to complete the pagewalk
system.gpu.shader_mmu.pagewalkLatency::1            0      0.00%    100.00% # Latency to complete the pagewalk
system.gpu.shader_mmu.pagewalkLatency::2            0      0.00%    100.00% # Latency to complete the pagewalk
system.gpu.shader_mmu.pagewalkLatency::3            0      0.00%    100.00% # Latency to complete the pagewalk
system.gpu.shader_mmu.pagewalkLatency::4            0      0.00%    100.00% # Latency to complete the pagewalk
system.gpu.shader_mmu.pagewalkLatency::5            0      0.00%    100.00% # Latency to complete the pagewalk
system.gpu.shader_mmu.pagewalkLatency::6            0      0.00%    100.00% # Latency to complete the pagewalk
system.gpu.shader_mmu.pagewalkLatency::7            0      0.00%    100.00% # Latency to complete the pagewalk
system.gpu.shader_mmu.pagewalkLatency::8            0      0.00%    100.00% # Latency to complete the pagewalk
system.gpu.shader_mmu.pagewalkLatency::9            0      0.00%    100.00% # Latency to complete the pagewalk
system.gpu.shader_mmu.pagewalkLatency::10            0      0.00%    100.00% # Latency to complete the pagewalk
system.gpu.shader_mmu.pagewalkLatency::11            0      0.00%    100.00% # Latency to complete the pagewalk
system.gpu.shader_mmu.pagewalkLatency::12            0      0.00%    100.00% # Latency to complete the pagewalk
system.gpu.shader_mmu.pagewalkLatency::13            0      0.00%    100.00% # Latency to complete the pagewalk
system.gpu.shader_mmu.pagewalkLatency::14            0      0.00%    100.00% # Latency to complete the pagewalk
system.gpu.shader_mmu.pagewalkLatency::15            0      0.00%    100.00% # Latency to complete the pagewalk
system.gpu.shader_mmu.pagewalkLatency::16            0      0.00%    100.00% # Latency to complete the pagewalk
system.gpu.shader_mmu.pagewalkLatency::17            0      0.00%    100.00% # Latency to complete the pagewalk
system.gpu.shader_mmu.pagewalkLatency::18            0      0.00%    100.00% # Latency to complete the pagewalk
system.gpu.shader_mmu.pagewalkLatency::19            0      0.00%    100.00% # Latency to complete the pagewalk
system.gpu.shader_mmu.pagewalkLatency::20            0      0.00%    100.00% # Latency to complete the pagewalk
system.gpu.shader_mmu.pagewalkLatency::21            0      0.00%    100.00% # Latency to complete the pagewalk
system.gpu.shader_mmu.pagewalkLatency::22            0      0.00%    100.00% # Latency to complete the pagewalk
system.gpu.shader_mmu.pagewalkLatency::23            0      0.00%    100.00% # Latency to complete the pagewalk
system.gpu.shader_mmu.pagewalkLatency::24            0      0.00%    100.00% # Latency to complete the pagewalk
system.gpu.shader_mmu.pagewalkLatency::25            0      0.00%    100.00% # Latency to complete the pagewalk
system.gpu.shader_mmu.pagewalkLatency::26            0      0.00%    100.00% # Latency to complete the pagewalk
system.gpu.shader_mmu.pagewalkLatency::27            0      0.00%    100.00% # Latency to complete the pagewalk
system.gpu.shader_mmu.pagewalkLatency::28            0      0.00%    100.00% # Latency to complete the pagewalk
system.gpu.shader_mmu.pagewalkLatency::29            0      0.00%    100.00% # Latency to complete the pagewalk
system.gpu.shader_mmu.pagewalkLatency::30            0      0.00%    100.00% # Latency to complete the pagewalk
system.gpu.shader_mmu.pagewalkLatency::31            0      0.00%    100.00% # Latency to complete the pagewalk
system.gpu.shader_mmu.pagewalkLatency::total        10270                       # Latency to complete the pagewalk
system.gpu.kernels_started                          0                       # Number of kernels started
system.gpu.kernels_completed                        0                       # Number of kernels completed
system.gpu.ce.device_dtb.hits                       0                       # Number of hits in this TLB
system.gpu.ce.device_dtb.misses                     0                       # Number of misses in this TLB
system.gpu.ce.device_dtb.hitRate                  nan                       # Hit rate for this TLB
system.gpu.ce.host_dtb.hits                    101880                       # Number of hits in this TLB
system.gpu.ce.host_dtb.misses                   10270                       # Number of misses in this TLB
system.gpu.ce.host_dtb.hitRate               0.908426                       # Hit rate for this TLB
system.gpu.ce.numOperations                        22                       # Number of copy/memset operations
system.gpu.ce.opBytesRead                    14352384                       # Number of copy bytes read
system.gpu.ce.opBytesWritten                 14352384                       # Number of copy/memset bytes written
system.gpu.ce.opTimeTicks                  1928222858                       # Total time spent in copy/memset operations
system.gpu.shader_cores0.itb.hits                   0                       # Number of hits in this TLB
system.gpu.shader_cores0.itb.misses                 0                       # Number of misses in this TLB
system.gpu.shader_cores0.itb.hitRate              nan                       # Hit rate for this TLB
system.gpu.shader_cores0.local_loads                0                       # Number of loads from local space
system.gpu.shader_cores0.local_stores               0                       # Number of stores to local space
system.gpu.shader_cores0.shared_loads               0                       # Number of loads from shared space
system.gpu.shader_cores0.shared_stores              0                       # Number of stores to shared space
system.gpu.shader_cores0.param_kernel_loads            0                       # Number of loads from kernel parameter space
system.gpu.shader_cores0.param_local_loads            0                       # Number of loads from local parameter space
system.gpu.shader_cores0.param_local_stores            0                       # Number of stores to local parameter space
system.gpu.shader_cores0.const_loads                0                       # Number of loads from constant space
system.gpu.shader_cores0.tex_loads                  0                       # Number of loads from texture space
system.gpu.shader_cores0.global_loads               0                       # Number of loads from global space
system.gpu.shader_cores0.global_stores              0                       # Number of stores to global space
system.gpu.shader_cores0.surf_loads                 0                       # Number of loads from surface space
system.gpu.shader_cores0.generic_loads              0                       # Number of loads from generic spaces (global, shared, local)
system.gpu.shader_cores0.generic_stores             0                       # Number of stores to generic spaces (global, shared, local)
system.gpu.shader_cores0.inst_cache_requests            0                       # Number of instruction cache requests sent
system.gpu.shader_cores0.inst_cache_retries            0                       # Number of instruction cache retries
system.gpu.shader_cores0.inst_counts::0             0                       # Inst counts: 1: ALU, 2: MAD, 3: CTRL, 4: SFU, 5: MEM, 6: TEX, 7: NOP
system.gpu.shader_cores0.inst_counts::1             0                       # Inst counts: 1: ALU, 2: MAD, 3: CTRL, 4: SFU, 5: MEM, 6: TEX, 7: NOP
system.gpu.shader_cores0.inst_counts::2             0                       # Inst counts: 1: ALU, 2: MAD, 3: CTRL, 4: SFU, 5: MEM, 6: TEX, 7: NOP
system.gpu.shader_cores0.inst_counts::3             0                       # Inst counts: 1: ALU, 2: MAD, 3: CTRL, 4: SFU, 5: MEM, 6: TEX, 7: NOP
system.gpu.shader_cores0.inst_counts::4             0                       # Inst counts: 1: ALU, 2: MAD, 3: CTRL, 4: SFU, 5: MEM, 6: TEX, 7: NOP
system.gpu.shader_cores0.inst_counts::5             0                       # Inst counts: 1: ALU, 2: MAD, 3: CTRL, 4: SFU, 5: MEM, 6: TEX, 7: NOP
system.gpu.shader_cores0.inst_counts::6             0                       # Inst counts: 1: ALU, 2: MAD, 3: CTRL, 4: SFU, 5: MEM, 6: TEX, 7: NOP
system.gpu.shader_cores0.inst_counts::7             0                       # Inst counts: 1: ALU, 2: MAD, 3: CTRL, 4: SFU, 5: MEM, 6: TEX, 7: NOP
system.gpu.shader_cores0.activeCycles               0                       # Number of cycles this shader was executing a CTA
system.gpu.shader_cores0.notStalledCycles            0                       # Number of cycles this shader was actually executing at least one instance
system.gpu.shader_cores0.instInstances              0                       # Total instructions executed by all PEs in the core
system.gpu.shader_cores0.instPerCycle             nan                       # Instruction instances per cycle
system.gpu.shader_cores0.kernels_completed            0                       # Number of kernels completed
system.gpu.shader_cores0.lsq.data_tlb.hits            0                       # Number of hits in this TLB
system.gpu.shader_cores0.lsq.data_tlb.misses            0                       # Number of misses in this TLB
system.gpu.shader_cores0.lsq.data_tlb.hitRate          nan                       # Hit rate for this TLB
system.gpu.shader_cores0.lsq.warpInstBufActive::samples            0                       # Histogram of number of active warp inst buffers at a given time
system.gpu.shader_cores0.lsq.warpInstBufActive::mean          nan                       # Histogram of number of active warp inst buffers at a given time
system.gpu.shader_cores0.lsq.warpInstBufActive::gmean          nan                       # Histogram of number of active warp inst buffers at a given time
system.gpu.shader_cores0.lsq.warpInstBufActive::stdev          nan                       # Histogram of number of active warp inst buffers at a given time
system.gpu.shader_cores0.lsq.warpInstBufActive::0            0                       # Histogram of number of active warp inst buffers at a given time
system.gpu.shader_cores0.lsq.warpInstBufActive::1            0                       # Histogram of number of active warp inst buffers at a given time
system.gpu.shader_cores0.lsq.warpInstBufActive::2            0                       # Histogram of number of active warp inst buffers at a given time
system.gpu.shader_cores0.lsq.warpInstBufActive::3            0                       # Histogram of number of active warp inst buffers at a given time
system.gpu.shader_cores0.lsq.warpInstBufActive::4            0                       # Histogram of number of active warp inst buffers at a given time
system.gpu.shader_cores0.lsq.warpInstBufActive::5            0                       # Histogram of number of active warp inst buffers at a given time
system.gpu.shader_cores0.lsq.warpInstBufActive::6            0                       # Histogram of number of active warp inst buffers at a given time
system.gpu.shader_cores0.lsq.warpInstBufActive::7            0                       # Histogram of number of active warp inst buffers at a given time
system.gpu.shader_cores0.lsq.warpInstBufActive::8            0                       # Histogram of number of active warp inst buffers at a given time
system.gpu.shader_cores0.lsq.warpInstBufActive::9            0                       # Histogram of number of active warp inst buffers at a given time
system.gpu.shader_cores0.lsq.warpInstBufActive::10            0                       # Histogram of number of active warp inst buffers at a given time
system.gpu.shader_cores0.lsq.warpInstBufActive::11            0                       # Histogram of number of active warp inst buffers at a given time
system.gpu.shader_cores0.lsq.warpInstBufActive::12            0                       # Histogram of number of active warp inst buffers at a given time
system.gpu.shader_cores0.lsq.warpInstBufActive::13            0                       # Histogram of number of active warp inst buffers at a given time
system.gpu.shader_cores0.lsq.warpInstBufActive::14            0                       # Histogram of number of active warp inst buffers at a given time
system.gpu.shader_cores0.lsq.warpInstBufActive::15            0                       # Histogram of number of active warp inst buffers at a given time
system.gpu.shader_cores0.lsq.warpInstBufActive::16            0                       # Histogram of number of active warp inst buffers at a given time
system.gpu.shader_cores0.lsq.warpInstBufActive::17            0                       # Histogram of number of active warp inst buffers at a given time
system.gpu.shader_cores0.lsq.warpInstBufActive::18            0                       # Histogram of number of active warp inst buffers at a given time
system.gpu.shader_cores0.lsq.warpInstBufActive::19            0                       # Histogram of number of active warp inst buffers at a given time
system.gpu.shader_cores0.lsq.warpInstBufActive::20            0                       # Histogram of number of active warp inst buffers at a given time
system.gpu.shader_cores0.lsq.warpInstBufActive::21            0                       # Histogram of number of active warp inst buffers at a given time
system.gpu.shader_cores0.lsq.warpInstBufActive::22            0                       # Histogram of number of active warp inst buffers at a given time
system.gpu.shader_cores0.lsq.warpInstBufActive::23            0                       # Histogram of number of active warp inst buffers at a given time
system.gpu.shader_cores0.lsq.warpInstBufActive::24            0                       # Histogram of number of active warp inst buffers at a given time
system.gpu.shader_cores0.lsq.warpInstBufActive::25            0                       # Histogram of number of active warp inst buffers at a given time
system.gpu.shader_cores0.lsq.warpInstBufActive::26            0                       # Histogram of number of active warp inst buffers at a given time
system.gpu.shader_cores0.lsq.warpInstBufActive::27            0                       # Histogram of number of active warp inst buffers at a given time
system.gpu.shader_cores0.lsq.warpInstBufActive::28            0                       # Histogram of number of active warp inst buffers at a given time
system.gpu.shader_cores0.lsq.warpInstBufActive::29            0                       # Histogram of number of active warp inst buffers at a given time
system.gpu.shader_cores0.lsq.warpInstBufActive::30            0                       # Histogram of number of active warp inst buffers at a given time
system.gpu.shader_cores0.lsq.warpInstBufActive::31            0                       # Histogram of number of active warp inst buffers at a given time
system.gpu.shader_cores0.lsq.warpInstBufActive::32            0                       # Histogram of number of active warp inst buffers at a given time
system.gpu.shader_cores0.lsq.warpInstBufActive::33            0                       # Histogram of number of active warp inst buffers at a given time
system.gpu.shader_cores0.lsq.warpInstBufActive::34            0                       # Histogram of number of active warp inst buffers at a given time
system.gpu.shader_cores0.lsq.warpInstBufActive::35            0                       # Histogram of number of active warp inst buffers at a given time
system.gpu.shader_cores0.lsq.warpInstBufActive::36            0                       # Histogram of number of active warp inst buffers at a given time
system.gpu.shader_cores0.lsq.warpInstBufActive::37            0                       # Histogram of number of active warp inst buffers at a given time
system.gpu.shader_cores0.lsq.warpInstBufActive::38            0                       # Histogram of number of active warp inst buffers at a given time
system.gpu.shader_cores0.lsq.warpInstBufActive::39            0                       # Histogram of number of active warp inst buffers at a given time
system.gpu.shader_cores0.lsq.warpInstBufActive::40            0                       # Histogram of number of active warp inst buffers at a given time
system.gpu.shader_cores0.lsq.warpInstBufActive::41            0                       # Histogram of number of active warp inst buffers at a given time
system.gpu.shader_cores0.lsq.warpInstBufActive::42            0                       # Histogram of number of active warp inst buffers at a given time
system.gpu.shader_cores0.lsq.warpInstBufActive::43            0                       # Histogram of number of active warp inst buffers at a given time
system.gpu.shader_cores0.lsq.warpInstBufActive::44            0                       # Histogram of number of active warp inst buffers at a given time
system.gpu.shader_cores0.lsq.warpInstBufActive::45            0                       # Histogram of number of active warp inst buffers at a given time
system.gpu.shader_cores0.lsq.warpInstBufActive::46            0                       # Histogram of number of active warp inst buffers at a given time
system.gpu.shader_cores0.lsq.warpInstBufActive::47            0                       # Histogram of number of active warp inst buffers at a given time
system.gpu.shader_cores0.lsq.warpInstBufActive::48            0                       # Histogram of number of active warp inst buffers at a given time
system.gpu.shader_cores0.lsq.warpInstBufActive::49            0                       # Histogram of number of active warp inst buffers at a given time
system.gpu.shader_cores0.lsq.warpInstBufActive::50            0                       # Histogram of number of active warp inst buffers at a given time
system.gpu.shader_cores0.lsq.warpInstBufActive::51            0                       # Histogram of number of active warp inst buffers at a given time
system.gpu.shader_cores0.lsq.warpInstBufActive::52            0                       # Histogram of number of active warp inst buffers at a given time
system.gpu.shader_cores0.lsq.warpInstBufActive::53            0                       # Histogram of number of active warp inst buffers at a given time
system.gpu.shader_cores0.lsq.warpInstBufActive::54            0                       # Histogram of number of active warp inst buffers at a given time
system.gpu.shader_cores0.lsq.warpInstBufActive::55            0                       # Histogram of number of active warp inst buffers at a given time
system.gpu.shader_cores0.lsq.warpInstBufActive::56            0                       # Histogram of number of active warp inst buffers at a given time
system.gpu.shader_cores0.lsq.warpInstBufActive::57            0                       # Histogram of number of active warp inst buffers at a given time
system.gpu.shader_cores0.lsq.warpInstBufActive::58            0                       # Histogram of number of active warp inst buffers at a given time
system.gpu.shader_cores0.lsq.warpInstBufActive::59            0                       # Histogram of number of active warp inst buffers at a given time
system.gpu.shader_cores0.lsq.warpInstBufActive::60            0                       # Histogram of number of active warp inst buffers at a given time
system.gpu.shader_cores0.lsq.warpInstBufActive::61            0                       # Histogram of number of active warp inst buffers at a given time
system.gpu.shader_cores0.lsq.warpInstBufActive::62            0                       # Histogram of number of active warp inst buffers at a given time
system.gpu.shader_cores0.lsq.warpInstBufActive::63            0                       # Histogram of number of active warp inst buffers at a given time
system.gpu.shader_cores0.lsq.warpInstBufActive::64            0                       # Histogram of number of active warp inst buffers at a given time
system.gpu.shader_cores0.lsq.warpInstBufActive::total            0                       # Histogram of number of active warp inst buffers at a given time
system.gpu.shader_cores0.lsq.cacheAccesses            0                       # Average number of concurrent outstanding cache accesses
system.gpu.shader_cores0.lsq.writebackBlockedCycles            0                       # Number of cycles blocked for core writeback stage
system.gpu.shader_cores0.lsq.mshrHitQueued            0                       # Number of hits on blocked lines in MSHRs
system.gpu.shader_cores0.lsq.mshrsFullCycles            0                       # Number of cycles stalled waiting for an MSHR
system.gpu.shader_cores0.lsq.mshrsFullCount            0                       # Number of times MSHRs filled
system.gpu.shader_cores0.lsq.warpCoalescedAccesses::samples            0                       # Number of coalesced accesses per warp instruction
system.gpu.shader_cores0.lsq.warpCoalescedAccesses::mean          nan                       # Number of coalesced accesses per warp instruction
system.gpu.shader_cores0.lsq.warpCoalescedAccesses::gmean          nan                       # Number of coalesced accesses per warp instruction
system.gpu.shader_cores0.lsq.warpCoalescedAccesses::stdev          nan                       # Number of coalesced accesses per warp instruction
system.gpu.shader_cores0.lsq.warpCoalescedAccesses::0            0                       # Number of coalesced accesses per warp instruction
system.gpu.shader_cores0.lsq.warpCoalescedAccesses::1            0                       # Number of coalesced accesses per warp instruction
system.gpu.shader_cores0.lsq.warpCoalescedAccesses::2            0                       # Number of coalesced accesses per warp instruction
system.gpu.shader_cores0.lsq.warpCoalescedAccesses::3            0                       # Number of coalesced accesses per warp instruction
system.gpu.shader_cores0.lsq.warpCoalescedAccesses::4            0                       # Number of coalesced accesses per warp instruction
system.gpu.shader_cores0.lsq.warpCoalescedAccesses::5            0                       # Number of coalesced accesses per warp instruction
system.gpu.shader_cores0.lsq.warpCoalescedAccesses::6            0                       # Number of coalesced accesses per warp instruction
system.gpu.shader_cores0.lsq.warpCoalescedAccesses::7            0                       # Number of coalesced accesses per warp instruction
system.gpu.shader_cores0.lsq.warpCoalescedAccesses::8            0                       # Number of coalesced accesses per warp instruction
system.gpu.shader_cores0.lsq.warpCoalescedAccesses::9            0                       # Number of coalesced accesses per warp instruction
system.gpu.shader_cores0.lsq.warpCoalescedAccesses::10            0                       # Number of coalesced accesses per warp instruction
system.gpu.shader_cores0.lsq.warpCoalescedAccesses::11            0                       # Number of coalesced accesses per warp instruction
system.gpu.shader_cores0.lsq.warpCoalescedAccesses::12            0                       # Number of coalesced accesses per warp instruction
system.gpu.shader_cores0.lsq.warpCoalescedAccesses::13            0                       # Number of coalesced accesses per warp instruction
system.gpu.shader_cores0.lsq.warpCoalescedAccesses::14            0                       # Number of coalesced accesses per warp instruction
system.gpu.shader_cores0.lsq.warpCoalescedAccesses::15            0                       # Number of coalesced accesses per warp instruction
system.gpu.shader_cores0.lsq.warpCoalescedAccesses::16            0                       # Number of coalesced accesses per warp instruction
system.gpu.shader_cores0.lsq.warpCoalescedAccesses::17            0                       # Number of coalesced accesses per warp instruction
system.gpu.shader_cores0.lsq.warpCoalescedAccesses::18            0                       # Number of coalesced accesses per warp instruction
system.gpu.shader_cores0.lsq.warpCoalescedAccesses::19            0                       # Number of coalesced accesses per warp instruction
system.gpu.shader_cores0.lsq.warpCoalescedAccesses::20            0                       # Number of coalesced accesses per warp instruction
system.gpu.shader_cores0.lsq.warpCoalescedAccesses::21            0                       # Number of coalesced accesses per warp instruction
system.gpu.shader_cores0.lsq.warpCoalescedAccesses::22            0                       # Number of coalesced accesses per warp instruction
system.gpu.shader_cores0.lsq.warpCoalescedAccesses::23            0                       # Number of coalesced accesses per warp instruction
system.gpu.shader_cores0.lsq.warpCoalescedAccesses::24            0                       # Number of coalesced accesses per warp instruction
system.gpu.shader_cores0.lsq.warpCoalescedAccesses::25            0                       # Number of coalesced accesses per warp instruction
system.gpu.shader_cores0.lsq.warpCoalescedAccesses::26            0                       # Number of coalesced accesses per warp instruction
system.gpu.shader_cores0.lsq.warpCoalescedAccesses::27            0                       # Number of coalesced accesses per warp instruction
system.gpu.shader_cores0.lsq.warpCoalescedAccesses::28            0                       # Number of coalesced accesses per warp instruction
system.gpu.shader_cores0.lsq.warpCoalescedAccesses::29            0                       # Number of coalesced accesses per warp instruction
system.gpu.shader_cores0.lsq.warpCoalescedAccesses::30            0                       # Number of coalesced accesses per warp instruction
system.gpu.shader_cores0.lsq.warpCoalescedAccesses::31            0                       # Number of coalesced accesses per warp instruction
system.gpu.shader_cores0.lsq.warpCoalescedAccesses::32            0                       # Number of coalesced accesses per warp instruction
system.gpu.shader_cores0.lsq.warpCoalescedAccesses::total            0                       # Number of coalesced accesses per warp instruction
system.gpu.shader_cores0.lsq.warpLatencyRead::samples            0                       # Latency in cycles for whole warp to finish the read
system.gpu.shader_cores0.lsq.warpLatencyRead::mean          nan                       # Latency in cycles for whole warp to finish the read
system.gpu.shader_cores0.lsq.warpLatencyRead::gmean          nan                       # Latency in cycles for whole warp to finish the read
system.gpu.shader_cores0.lsq.warpLatencyRead::stdev          nan                       # Latency in cycles for whole warp to finish the read
system.gpu.shader_cores0.lsq.warpLatencyRead::0            0                       # Latency in cycles for whole warp to finish the read
system.gpu.shader_cores0.lsq.warpLatencyRead::1            0                       # Latency in cycles for whole warp to finish the read
system.gpu.shader_cores0.lsq.warpLatencyRead::2            0                       # Latency in cycles for whole warp to finish the read
system.gpu.shader_cores0.lsq.warpLatencyRead::3            0                       # Latency in cycles for whole warp to finish the read
system.gpu.shader_cores0.lsq.warpLatencyRead::4            0                       # Latency in cycles for whole warp to finish the read
system.gpu.shader_cores0.lsq.warpLatencyRead::5            0                       # Latency in cycles for whole warp to finish the read
system.gpu.shader_cores0.lsq.warpLatencyRead::6            0                       # Latency in cycles for whole warp to finish the read
system.gpu.shader_cores0.lsq.warpLatencyRead::7            0                       # Latency in cycles for whole warp to finish the read
system.gpu.shader_cores0.lsq.warpLatencyRead::8            0                       # Latency in cycles for whole warp to finish the read
system.gpu.shader_cores0.lsq.warpLatencyRead::9            0                       # Latency in cycles for whole warp to finish the read
system.gpu.shader_cores0.lsq.warpLatencyRead::10            0                       # Latency in cycles for whole warp to finish the read
system.gpu.shader_cores0.lsq.warpLatencyRead::11            0                       # Latency in cycles for whole warp to finish the read
system.gpu.shader_cores0.lsq.warpLatencyRead::12            0                       # Latency in cycles for whole warp to finish the read
system.gpu.shader_cores0.lsq.warpLatencyRead::13            0                       # Latency in cycles for whole warp to finish the read
system.gpu.shader_cores0.lsq.warpLatencyRead::14            0                       # Latency in cycles for whole warp to finish the read
system.gpu.shader_cores0.lsq.warpLatencyRead::15            0                       # Latency in cycles for whole warp to finish the read
system.gpu.shader_cores0.lsq.warpLatencyRead::total            0                       # Latency in cycles for whole warp to finish the read
system.gpu.shader_cores0.lsq.warpLatencyWrite::samples            0                       # Latency in cycles for whole warp to finish the write
system.gpu.shader_cores0.lsq.warpLatencyWrite::mean          nan                       # Latency in cycles for whole warp to finish the write
system.gpu.shader_cores0.lsq.warpLatencyWrite::gmean          nan                       # Latency in cycles for whole warp to finish the write
system.gpu.shader_cores0.lsq.warpLatencyWrite::stdev          nan                       # Latency in cycles for whole warp to finish the write
system.gpu.shader_cores0.lsq.warpLatencyWrite::0            0                       # Latency in cycles for whole warp to finish the write
system.gpu.shader_cores0.lsq.warpLatencyWrite::1            0                       # Latency in cycles for whole warp to finish the write
system.gpu.shader_cores0.lsq.warpLatencyWrite::2            0                       # Latency in cycles for whole warp to finish the write
system.gpu.shader_cores0.lsq.warpLatencyWrite::3            0                       # Latency in cycles for whole warp to finish the write
system.gpu.shader_cores0.lsq.warpLatencyWrite::4            0                       # Latency in cycles for whole warp to finish the write
system.gpu.shader_cores0.lsq.warpLatencyWrite::5            0                       # Latency in cycles for whole warp to finish the write
system.gpu.shader_cores0.lsq.warpLatencyWrite::6            0                       # Latency in cycles for whole warp to finish the write
system.gpu.shader_cores0.lsq.warpLatencyWrite::7            0                       # Latency in cycles for whole warp to finish the write
system.gpu.shader_cores0.lsq.warpLatencyWrite::8            0                       # Latency in cycles for whole warp to finish the write
system.gpu.shader_cores0.lsq.warpLatencyWrite::9            0                       # Latency in cycles for whole warp to finish the write
system.gpu.shader_cores0.lsq.warpLatencyWrite::10            0                       # Latency in cycles for whole warp to finish the write
system.gpu.shader_cores0.lsq.warpLatencyWrite::11            0                       # Latency in cycles for whole warp to finish the write
system.gpu.shader_cores0.lsq.warpLatencyWrite::12            0                       # Latency in cycles for whole warp to finish the write
system.gpu.shader_cores0.lsq.warpLatencyWrite::13            0                       # Latency in cycles for whole warp to finish the write
system.gpu.shader_cores0.lsq.warpLatencyWrite::14            0                       # Latency in cycles for whole warp to finish the write
system.gpu.shader_cores0.lsq.warpLatencyWrite::15            0                       # Latency in cycles for whole warp to finish the write
system.gpu.shader_cores0.lsq.warpLatencyWrite::total            0                       # Latency in cycles for whole warp to finish the write
system.gpu.shader_cores0.lsq.warpLatencyFence::samples            0                       # Latency in cycles for whole warp to finish the fence
system.gpu.shader_cores0.lsq.warpLatencyFence::mean          nan                       # Latency in cycles for whole warp to finish the fence
system.gpu.shader_cores0.lsq.warpLatencyFence::gmean          nan                       # Latency in cycles for whole warp to finish the fence
system.gpu.shader_cores0.lsq.warpLatencyFence::stdev          nan                       # Latency in cycles for whole warp to finish the fence
system.gpu.shader_cores0.lsq.warpLatencyFence::0            0                       # Latency in cycles for whole warp to finish the fence
system.gpu.shader_cores0.lsq.warpLatencyFence::1            0                       # Latency in cycles for whole warp to finish the fence
system.gpu.shader_cores0.lsq.warpLatencyFence::2            0                       # Latency in cycles for whole warp to finish the fence
system.gpu.shader_cores0.lsq.warpLatencyFence::3            0                       # Latency in cycles for whole warp to finish the fence
system.gpu.shader_cores0.lsq.warpLatencyFence::4            0                       # Latency in cycles for whole warp to finish the fence
system.gpu.shader_cores0.lsq.warpLatencyFence::5            0                       # Latency in cycles for whole warp to finish the fence
system.gpu.shader_cores0.lsq.warpLatencyFence::6            0                       # Latency in cycles for whole warp to finish the fence
system.gpu.shader_cores0.lsq.warpLatencyFence::7            0                       # Latency in cycles for whole warp to finish the fence
system.gpu.shader_cores0.lsq.warpLatencyFence::8            0                       # Latency in cycles for whole warp to finish the fence
system.gpu.shader_cores0.lsq.warpLatencyFence::9            0                       # Latency in cycles for whole warp to finish the fence
system.gpu.shader_cores0.lsq.warpLatencyFence::10            0                       # Latency in cycles for whole warp to finish the fence
system.gpu.shader_cores0.lsq.warpLatencyFence::11            0                       # Latency in cycles for whole warp to finish the fence
system.gpu.shader_cores0.lsq.warpLatencyFence::12            0                       # Latency in cycles for whole warp to finish the fence
system.gpu.shader_cores0.lsq.warpLatencyFence::13            0                       # Latency in cycles for whole warp to finish the fence
system.gpu.shader_cores0.lsq.warpLatencyFence::14            0                       # Latency in cycles for whole warp to finish the fence
system.gpu.shader_cores0.lsq.warpLatencyFence::15            0                       # Latency in cycles for whole warp to finish the fence
system.gpu.shader_cores0.lsq.warpLatencyFence::total            0                       # Latency in cycles for whole warp to finish the fence
system.gpu.shader_cores0.lsq.warpLatencyAtomic::samples            0                       # Latency in cycles for whole warp to finish the atomic
system.gpu.shader_cores0.lsq.warpLatencyAtomic::mean          nan                       # Latency in cycles for whole warp to finish the atomic
system.gpu.shader_cores0.lsq.warpLatencyAtomic::gmean          nan                       # Latency in cycles for whole warp to finish the atomic
system.gpu.shader_cores0.lsq.warpLatencyAtomic::stdev          nan                       # Latency in cycles for whole warp to finish the atomic
system.gpu.shader_cores0.lsq.warpLatencyAtomic::0            0                       # Latency in cycles for whole warp to finish the atomic
system.gpu.shader_cores0.lsq.warpLatencyAtomic::1            0                       # Latency in cycles for whole warp to finish the atomic
system.gpu.shader_cores0.lsq.warpLatencyAtomic::2            0                       # Latency in cycles for whole warp to finish the atomic
system.gpu.shader_cores0.lsq.warpLatencyAtomic::3            0                       # Latency in cycles for whole warp to finish the atomic
system.gpu.shader_cores0.lsq.warpLatencyAtomic::4            0                       # Latency in cycles for whole warp to finish the atomic
system.gpu.shader_cores0.lsq.warpLatencyAtomic::5            0                       # Latency in cycles for whole warp to finish the atomic
system.gpu.shader_cores0.lsq.warpLatencyAtomic::6            0                       # Latency in cycles for whole warp to finish the atomic
system.gpu.shader_cores0.lsq.warpLatencyAtomic::7            0                       # Latency in cycles for whole warp to finish the atomic
system.gpu.shader_cores0.lsq.warpLatencyAtomic::8            0                       # Latency in cycles for whole warp to finish the atomic
system.gpu.shader_cores0.lsq.warpLatencyAtomic::9            0                       # Latency in cycles for whole warp to finish the atomic
system.gpu.shader_cores0.lsq.warpLatencyAtomic::10            0                       # Latency in cycles for whole warp to finish the atomic
system.gpu.shader_cores0.lsq.warpLatencyAtomic::11            0                       # Latency in cycles for whole warp to finish the atomic
system.gpu.shader_cores0.lsq.warpLatencyAtomic::12            0                       # Latency in cycles for whole warp to finish the atomic
system.gpu.shader_cores0.lsq.warpLatencyAtomic::13            0                       # Latency in cycles for whole warp to finish the atomic
system.gpu.shader_cores0.lsq.warpLatencyAtomic::14            0                       # Latency in cycles for whole warp to finish the atomic
system.gpu.shader_cores0.lsq.warpLatencyAtomic::15            0                       # Latency in cycles for whole warp to finish the atomic
system.gpu.shader_cores0.lsq.warpLatencyAtomic::total            0                       # Latency in cycles for whole warp to finish the atomic
system.gpu.shader_cores0.lsq.tlbMissLatency::samples            0                       # Latency in cycles for TLB miss
system.gpu.shader_cores0.lsq.tlbMissLatency::mean          nan                       # Latency in cycles for TLB miss
system.gpu.shader_cores0.lsq.tlbMissLatency::gmean          nan                       # Latency in cycles for TLB miss
system.gpu.shader_cores0.lsq.tlbMissLatency::stdev          nan                       # Latency in cycles for TLB miss
system.gpu.shader_cores0.lsq.tlbMissLatency::0            0                       # Latency in cycles for TLB miss
system.gpu.shader_cores0.lsq.tlbMissLatency::1            0                       # Latency in cycles for TLB miss
system.gpu.shader_cores0.lsq.tlbMissLatency::2            0                       # Latency in cycles for TLB miss
system.gpu.shader_cores0.lsq.tlbMissLatency::3            0                       # Latency in cycles for TLB miss
system.gpu.shader_cores0.lsq.tlbMissLatency::4            0                       # Latency in cycles for TLB miss
system.gpu.shader_cores0.lsq.tlbMissLatency::5            0                       # Latency in cycles for TLB miss
system.gpu.shader_cores0.lsq.tlbMissLatency::6            0                       # Latency in cycles for TLB miss
system.gpu.shader_cores0.lsq.tlbMissLatency::7            0                       # Latency in cycles for TLB miss
system.gpu.shader_cores0.lsq.tlbMissLatency::8            0                       # Latency in cycles for TLB miss
system.gpu.shader_cores0.lsq.tlbMissLatency::9            0                       # Latency in cycles for TLB miss
system.gpu.shader_cores0.lsq.tlbMissLatency::10            0                       # Latency in cycles for TLB miss
system.gpu.shader_cores0.lsq.tlbMissLatency::11            0                       # Latency in cycles for TLB miss
system.gpu.shader_cores0.lsq.tlbMissLatency::12            0                       # Latency in cycles for TLB miss
system.gpu.shader_cores0.lsq.tlbMissLatency::13            0                       # Latency in cycles for TLB miss
system.gpu.shader_cores0.lsq.tlbMissLatency::14            0                       # Latency in cycles for TLB miss
system.gpu.shader_cores0.lsq.tlbMissLatency::15            0                       # Latency in cycles for TLB miss
system.gpu.shader_cores0.lsq.tlbMissLatency::total            0                       # Latency in cycles for TLB miss
system.gpu.shader_cores1.itb.hits                   0                       # Number of hits in this TLB
system.gpu.shader_cores1.itb.misses                 0                       # Number of misses in this TLB
system.gpu.shader_cores1.itb.hitRate              nan                       # Hit rate for this TLB
system.gpu.shader_cores1.local_loads                0                       # Number of loads from local space
system.gpu.shader_cores1.local_stores               0                       # Number of stores to local space
system.gpu.shader_cores1.shared_loads               0                       # Number of loads from shared space
system.gpu.shader_cores1.shared_stores              0                       # Number of stores to shared space
system.gpu.shader_cores1.param_kernel_loads            0                       # Number of loads from kernel parameter space
system.gpu.shader_cores1.param_local_loads            0                       # Number of loads from local parameter space
system.gpu.shader_cores1.param_local_stores            0                       # Number of stores to local parameter space
system.gpu.shader_cores1.const_loads                0                       # Number of loads from constant space
system.gpu.shader_cores1.tex_loads                  0                       # Number of loads from texture space
system.gpu.shader_cores1.global_loads               0                       # Number of loads from global space
system.gpu.shader_cores1.global_stores              0                       # Number of stores to global space
system.gpu.shader_cores1.surf_loads                 0                       # Number of loads from surface space
system.gpu.shader_cores1.generic_loads              0                       # Number of loads from generic spaces (global, shared, local)
system.gpu.shader_cores1.generic_stores             0                       # Number of stores to generic spaces (global, shared, local)
system.gpu.shader_cores1.inst_cache_requests            0                       # Number of instruction cache requests sent
system.gpu.shader_cores1.inst_cache_retries            0                       # Number of instruction cache retries
system.gpu.shader_cores1.inst_counts::0             0                       # Inst counts: 1: ALU, 2: MAD, 3: CTRL, 4: SFU, 5: MEM, 6: TEX, 7: NOP
system.gpu.shader_cores1.inst_counts::1             0                       # Inst counts: 1: ALU, 2: MAD, 3: CTRL, 4: SFU, 5: MEM, 6: TEX, 7: NOP
system.gpu.shader_cores1.inst_counts::2             0                       # Inst counts: 1: ALU, 2: MAD, 3: CTRL, 4: SFU, 5: MEM, 6: TEX, 7: NOP
system.gpu.shader_cores1.inst_counts::3             0                       # Inst counts: 1: ALU, 2: MAD, 3: CTRL, 4: SFU, 5: MEM, 6: TEX, 7: NOP
system.gpu.shader_cores1.inst_counts::4             0                       # Inst counts: 1: ALU, 2: MAD, 3: CTRL, 4: SFU, 5: MEM, 6: TEX, 7: NOP
system.gpu.shader_cores1.inst_counts::5             0                       # Inst counts: 1: ALU, 2: MAD, 3: CTRL, 4: SFU, 5: MEM, 6: TEX, 7: NOP
system.gpu.shader_cores1.inst_counts::6             0                       # Inst counts: 1: ALU, 2: MAD, 3: CTRL, 4: SFU, 5: MEM, 6: TEX, 7: NOP
system.gpu.shader_cores1.inst_counts::7             0                       # Inst counts: 1: ALU, 2: MAD, 3: CTRL, 4: SFU, 5: MEM, 6: TEX, 7: NOP
system.gpu.shader_cores1.activeCycles               0                       # Number of cycles this shader was executing a CTA
system.gpu.shader_cores1.notStalledCycles            0                       # Number of cycles this shader was actually executing at least one instance
system.gpu.shader_cores1.instInstances              0                       # Total instructions executed by all PEs in the core
system.gpu.shader_cores1.instPerCycle             nan                       # Instruction instances per cycle
system.gpu.shader_cores1.kernels_completed            0                       # Number of kernels completed
system.gpu.shader_cores1.lsq.data_tlb.hits            0                       # Number of hits in this TLB
system.gpu.shader_cores1.lsq.data_tlb.misses            0                       # Number of misses in this TLB
system.gpu.shader_cores1.lsq.data_tlb.hitRate          nan                       # Hit rate for this TLB
system.gpu.shader_cores1.lsq.warpInstBufActive::samples            0                       # Histogram of number of active warp inst buffers at a given time
system.gpu.shader_cores1.lsq.warpInstBufActive::mean          nan                       # Histogram of number of active warp inst buffers at a given time
system.gpu.shader_cores1.lsq.warpInstBufActive::gmean          nan                       # Histogram of number of active warp inst buffers at a given time
system.gpu.shader_cores1.lsq.warpInstBufActive::stdev          nan                       # Histogram of number of active warp inst buffers at a given time
system.gpu.shader_cores1.lsq.warpInstBufActive::0            0                       # Histogram of number of active warp inst buffers at a given time
system.gpu.shader_cores1.lsq.warpInstBufActive::1            0                       # Histogram of number of active warp inst buffers at a given time
system.gpu.shader_cores1.lsq.warpInstBufActive::2            0                       # Histogram of number of active warp inst buffers at a given time
system.gpu.shader_cores1.lsq.warpInstBufActive::3            0                       # Histogram of number of active warp inst buffers at a given time
system.gpu.shader_cores1.lsq.warpInstBufActive::4            0                       # Histogram of number of active warp inst buffers at a given time
system.gpu.shader_cores1.lsq.warpInstBufActive::5            0                       # Histogram of number of active warp inst buffers at a given time
system.gpu.shader_cores1.lsq.warpInstBufActive::6            0                       # Histogram of number of active warp inst buffers at a given time
system.gpu.shader_cores1.lsq.warpInstBufActive::7            0                       # Histogram of number of active warp inst buffers at a given time
system.gpu.shader_cores1.lsq.warpInstBufActive::8            0                       # Histogram of number of active warp inst buffers at a given time
system.gpu.shader_cores1.lsq.warpInstBufActive::9            0                       # Histogram of number of active warp inst buffers at a given time
system.gpu.shader_cores1.lsq.warpInstBufActive::10            0                       # Histogram of number of active warp inst buffers at a given time
system.gpu.shader_cores1.lsq.warpInstBufActive::11            0                       # Histogram of number of active warp inst buffers at a given time
system.gpu.shader_cores1.lsq.warpInstBufActive::12            0                       # Histogram of number of active warp inst buffers at a given time
system.gpu.shader_cores1.lsq.warpInstBufActive::13            0                       # Histogram of number of active warp inst buffers at a given time
system.gpu.shader_cores1.lsq.warpInstBufActive::14            0                       # Histogram of number of active warp inst buffers at a given time
system.gpu.shader_cores1.lsq.warpInstBufActive::15            0                       # Histogram of number of active warp inst buffers at a given time
system.gpu.shader_cores1.lsq.warpInstBufActive::16            0                       # Histogram of number of active warp inst buffers at a given time
system.gpu.shader_cores1.lsq.warpInstBufActive::17            0                       # Histogram of number of active warp inst buffers at a given time
system.gpu.shader_cores1.lsq.warpInstBufActive::18            0                       # Histogram of number of active warp inst buffers at a given time
system.gpu.shader_cores1.lsq.warpInstBufActive::19            0                       # Histogram of number of active warp inst buffers at a given time
system.gpu.shader_cores1.lsq.warpInstBufActive::20            0                       # Histogram of number of active warp inst buffers at a given time
system.gpu.shader_cores1.lsq.warpInstBufActive::21            0                       # Histogram of number of active warp inst buffers at a given time
system.gpu.shader_cores1.lsq.warpInstBufActive::22            0                       # Histogram of number of active warp inst buffers at a given time
system.gpu.shader_cores1.lsq.warpInstBufActive::23            0                       # Histogram of number of active warp inst buffers at a given time
system.gpu.shader_cores1.lsq.warpInstBufActive::24            0                       # Histogram of number of active warp inst buffers at a given time
system.gpu.shader_cores1.lsq.warpInstBufActive::25            0                       # Histogram of number of active warp inst buffers at a given time
system.gpu.shader_cores1.lsq.warpInstBufActive::26            0                       # Histogram of number of active warp inst buffers at a given time
system.gpu.shader_cores1.lsq.warpInstBufActive::27            0                       # Histogram of number of active warp inst buffers at a given time
system.gpu.shader_cores1.lsq.warpInstBufActive::28            0                       # Histogram of number of active warp inst buffers at a given time
system.gpu.shader_cores1.lsq.warpInstBufActive::29            0                       # Histogram of number of active warp inst buffers at a given time
system.gpu.shader_cores1.lsq.warpInstBufActive::30            0                       # Histogram of number of active warp inst buffers at a given time
system.gpu.shader_cores1.lsq.warpInstBufActive::31            0                       # Histogram of number of active warp inst buffers at a given time
system.gpu.shader_cores1.lsq.warpInstBufActive::32            0                       # Histogram of number of active warp inst buffers at a given time
system.gpu.shader_cores1.lsq.warpInstBufActive::33            0                       # Histogram of number of active warp inst buffers at a given time
system.gpu.shader_cores1.lsq.warpInstBufActive::34            0                       # Histogram of number of active warp inst buffers at a given time
system.gpu.shader_cores1.lsq.warpInstBufActive::35            0                       # Histogram of number of active warp inst buffers at a given time
system.gpu.shader_cores1.lsq.warpInstBufActive::36            0                       # Histogram of number of active warp inst buffers at a given time
system.gpu.shader_cores1.lsq.warpInstBufActive::37            0                       # Histogram of number of active warp inst buffers at a given time
[...]
system.ruby.RMW_Read.L1Cache.hit_type_mach_latency_hist::gmean            1                      
system.ruby.RMW_Read.L1Cache.hit_type_mach_latency_hist |           0      0.00%      0.00% |        2882    100.00%    100.00% |           0      0.00%    100.00% |           0      0.00%    100.00% |           0      0.00%    100.00% |           0      0.00%    100.00% |           0      0.00%    100.00% |           0      0.00%    100.00% |           0      0.00%    100.00% |           0      0.00%    100.00%
system.ruby.RMW_Read.L1Cache.hit_type_mach_latency_hist::total         2882                      
system.ruby.RMW_Read.Directory.miss_type_mach_latency_hist::bucket_size           16                      
system.ruby.RMW_Read.Directory.miss_type_mach_latency_hist::max_bucket          159                      
system.ruby.RMW_Read.Directory.miss_type_mach_latency_hist::samples            2                      
system.ruby.RMW_Read.Directory.miss_type_mach_latency_hist::mean          144                      
system.ruby.RMW_Read.Directory.miss_type_mach_latency_hist::gmean          144                      
system.ruby.RMW_Read.Directory.miss_type_mach_latency_hist |           0      0.00%      0.00% |           0      0.00%      0.00% |           0      0.00%      0.00% |           0      0.00%      0.00% |           0      0.00%      0.00% |           0      0.00%      0.00% |           0      0.00%      0.00% |           0      0.00%      0.00% |           0      0.00%      0.00% |           2    100.00%    100.00%
system.ruby.RMW_Read.Directory.miss_type_mach_latency_hist::total            2                      
system.ruby.Locked_RMW_Read.L1Cache.hit_type_mach_latency_hist::bucket_size            1                      
system.ruby.Locked_RMW_Read.L1Cache.hit_type_mach_latency_hist::max_bucket            9                      
system.ruby.Locked_RMW_Read.L1Cache.hit_type_mach_latency_hist::samples          316                      
system.ruby.Locked_RMW_Read.L1Cache.hit_type_mach_latency_hist::mean            1                      
system.ruby.Locked_RMW_Read.L1Cache.hit_type_mach_latency_hist::gmean            1                      
system.ruby.Locked_RMW_Read.L1Cache.hit_type_mach_latency_hist |           0      0.00%      0.00% |         316    100.00%    100.00% |           0      0.00%    100.00% |           0      0.00%    100.00% |           0      0.00%    100.00% |           0      0.00%    100.00% |           0      0.00%    100.00% |           0      0.00%    100.00% |           0      0.00%    100.00% |           0      0.00%    100.00%
system.ruby.Locked_RMW_Read.L1Cache.hit_type_mach_latency_hist::total          316                      
system.ruby.Locked_RMW_Write.L1Cache.hit_type_mach_latency_hist::bucket_size            1                      
system.ruby.Locked_RMW_Write.L1Cache.hit_type_mach_latency_hist::max_bucket            9                      
system.ruby.Locked_RMW_Write.L1Cache.hit_type_mach_latency_hist::samples          316                      
system.ruby.Locked_RMW_Write.L1Cache.hit_type_mach_latency_hist::mean            1                      
system.ruby.Locked_RMW_Write.L1Cache.hit_type_mach_latency_hist::gmean            1                      
system.ruby.Locked_RMW_Write.L1Cache.hit_type_mach_latency_hist |           0      0.00%      0.00% |         316    100.00%    100.00% |           0      0.00%    100.00% |           0      0.00%    100.00% |           0      0.00%    100.00% |           0      0.00%    100.00% |           0      0.00%    100.00% |           0      0.00%    100.00% |           0      0.00%    100.00% |           0      0.00%    100.00%
system.ruby.Locked_RMW_Write.L1Cache.hit_type_mach_latency_hist::total          316                      
system.ruby.GPUCopyDMA_Controller.ReadRequest       112139      0.00%      0.00%
system.ruby.GPUCopyDMA_Controller.WriteRequest       112139      0.00%      0.00%
system.ruby.GPUCopyDMA_Controller.Data         112139      0.00%      0.00%
system.ruby.GPUCopyDMA_Controller.Ack          112139      0.00%      0.00%
system.ruby.GPUCopyDMA_Controller.READY.ReadRequest       112139      0.00%      0.00%
system.ruby.GPUCopyDMA_Controller.READY.WriteRequest       112139      0.00%      0.00%
system.ruby.GPUCopyDMA_Controller.BUSY_RD.Data       112139      0.00%      0.00%
system.ruby.GPUCopyDMA_Controller.BUSY_WR.Ack       112139      0.00%      0.00%
system.ruby.Directory_Controller.GETX             116      0.00%      0.00%
system.ruby.Directory_Controller.GETS            4551      0.00%      0.00%
system.ruby.Directory_Controller.PUT             1222      0.00%      0.00%
system.ruby.Directory_Controller.UnblockM         4667      0.00%      0.00%
system.ruby.Directory_Controller.Writeback_Clean         1193      0.00%      0.00%
system.ruby.Directory_Controller.Writeback_Exclusive_Clean           23      0.00%      0.00%
system.ruby.Directory_Controller.Writeback_Exclusive_Dirty            6      0.00%      0.00%
system.ruby.Directory_Controller.DMA_READ       112139      0.00%      0.00%
system.ruby.Directory_Controller.DMA_WRITE       112139      0.00%      0.00%
system.ruby.Directory_Controller.Memory_Data       113307      0.00%      0.00%
system.ruby.Directory_Controller.Memory_Ack       220791      0.00%      0.00%
system.ruby.Directory_Controller.Ack           667064      0.00%      0.00%
system.ruby.Directory_Controller.Shared_Data         3493      0.00%      0.00%
system.ruby.Directory_Controller.Data             504      0.00%      0.00%
system.ruby.Directory_Controller.Exclusive_Data         1773      0.00%      0.00%
system.ruby.Directory_Controller.All_acks_and_shared_data         3493      0.00%      0.00%
system.ruby.Directory_Controller.All_acks_and_data_no_sharers       220785      0.00%      0.00%
system.ruby.Directory_Controller.NO.PUT            29      0.00%      0.00%
system.ruby.Directory_Controller.NO.DMA_READ         2276      0.00%      0.00%
system.ruby.Directory_Controller.NO.DMA_WRITE         1767      0.00%      0.00%
system.ruby.Directory_Controller.S.PUT           1193      0.00%      0.00%
system.ruby.Directory_Controller.S.DMA_READ         1223      0.00%      0.00%
system.ruby.Directory_Controller.S.DMA_WRITE          504      0.00%      0.00%
system.ruby.Directory_Controller.O.DMA_READ            2      0.00%      0.00%
system.ruby.Directory_Controller.O.DMA_WRITE            3      0.00%      0.00%
system.ruby.Directory_Controller.E.GETX           116      0.00%      0.00%
system.ruby.Directory_Controller.E.GETS          4551      0.00%      0.00%
system.ruby.Directory_Controller.E.DMA_READ       108638      0.00%      0.00%
system.ruby.Directory_Controller.E.DMA_WRITE       109865      0.00%      0.00%
system.ruby.Directory_Controller.NO_B.UnblockM         4667      0.00%      0.00%
system.ruby.Directory_Controller.NO_B_W.Memory_Data         4667      0.00%      0.00%
system.ruby.Directory_Controller.NO_DW_B_W.Ack       334146      0.00%      0.00%
system.ruby.Directory_Controller.NO_DW_B_W.Data          504      0.00%      0.00%
system.ruby.Directory_Controller.NO_DW_B_W.Exclusive_Data         1767      0.00%      0.00%
system.ruby.Directory_Controller.NO_DW_B_W.All_acks_and_data_no_sharers       112139      0.00%      0.00%
system.ruby.Directory_Controller.NO_DR_B_W.Memory_Data       108638      0.00%      0.00%
system.ruby.Directory_Controller.NO_DR_B_W.Ack       325914      0.00%      0.00%
system.ruby.Directory_Controller.NO_DR_B_D.Ack         6998      0.00%      0.00%
system.ruby.Directory_Controller.NO_DR_B_D.Shared_Data         3493      0.00%      0.00%
system.ruby.Directory_Controller.NO_DR_B_D.Exclusive_Data            6      0.00%      0.00%
system.ruby.Directory_Controller.NO_DR_B_D.All_acks_and_shared_data         3493      0.00%      0.00%
system.ruby.Directory_Controller.NO_DR_B_D.All_acks_and_data_no_sharers            6      0.00%      0.00%
system.ruby.Directory_Controller.NO_DR_B.All_acks_and_data_no_sharers       108638      0.00%      0.00%
system.ruby.Directory_Controller.NO_DW_W.Memory_Ack       112139      0.00%      0.00%
system.ruby.Directory_Controller.O_DR_B_W.Memory_Data            2      0.00%      0.00%
system.ruby.Directory_Controller.O_DR_B_W.Ack            6      0.00%      0.00%
system.ruby.Directory_Controller.O_DR_B.All_acks_and_data_no_sharers            2      0.00%      0.00%
system.ruby.Directory_Controller.WB.Writeback_Clean         1193      0.00%      0.00%
system.ruby.Directory_Controller.WB.Writeback_Exclusive_Clean           23      0.00%      0.00%
system.ruby.Directory_Controller.WB.Writeback_Exclusive_Dirty            6      0.00%      0.00%
system.ruby.Directory_Controller.WB_E_W.Memory_Ack       108652      0.00%      0.00%
system.ruby.L1Cache_Controller.Load      |       62624    100.00%    100.00% |           0      0.00%    100.00%
system.ruby.L1Cache_Controller.Load::total        62624                      
system.ruby.L1Cache_Controller.Ifetch    |      396921    100.00%    100.00% |           0      0.00%    100.00%
system.ruby.L1Cache_Controller.Ifetch::total       396921                      
system.ruby.L1Cache_Controller.Store     |       45947    100.00%    100.00% |           0      0.00%    100.00%
system.ruby.L1Cache_Controller.Store::total        45947                      
system.ruby.L1Cache_Controller.L2_Replacement |        1222    100.00%    100.00% |           0      0.00%    100.00%
system.ruby.L1Cache_Controller.L2_Replacement::total         1222                      
system.ruby.L1Cache_Controller.L1_to_L2  |        4525    100.00%    100.00% |           0      0.00%    100.00%
system.ruby.L1Cache_Controller.L1_to_L2::total         4525                      
system.ruby.L1Cache_Controller.Trigger_L2_to_L1D |          27    100.00%    100.00% |           0      0.00%    100.00%
system.ruby.L1Cache_Controller.Trigger_L2_to_L1D::total           27                      
system.ruby.L1Cache_Controller.Trigger_L2_to_L1I |         446    100.00%    100.00% |           0      0.00%    100.00%
system.ruby.L1Cache_Controller.Trigger_L2_to_L1I::total          446                      
system.ruby.L1Cache_Controller.Complete_L2_to_L1 |         473    100.00%    100.00% |           0      0.00%    100.00%
system.ruby.L1Cache_Controller.Complete_L2_to_L1::total          473                      
system.ruby.L1Cache_Controller.Other_GETX |      112139     49.97%     49.97% |      112255     50.03%    100.00%
system.ruby.L1Cache_Controller.Other_GETX::total       224394                      
system.ruby.L1Cache_Controller.Other_GETS |      112139     49.01%     49.01% |      116690     50.99%    100.00%
system.ruby.L1Cache_Controller.Other_GETS::total       228829                      
system.ruby.L1Cache_Controller.Ack       |        9334    100.00%    100.00% |           0      0.00%    100.00%
system.ruby.L1Cache_Controller.Ack::total         9334                      
system.ruby.L1Cache_Controller.Exclusive_Data |        4667    100.00%    100.00% |           0      0.00%    100.00%
system.ruby.L1Cache_Controller.Exclusive_Data::total         4667                      
system.ruby.L1Cache_Controller.Writeback_Ack |        1222    100.00%    100.00% |           0      0.00%    100.00%
system.ruby.L1Cache_Controller.Writeback_Ack::total         1222                      
system.ruby.L1Cache_Controller.All_acks_no_sharers |        4667    100.00%    100.00% |           0      0.00%    100.00%
system.ruby.L1Cache_Controller.All_acks_no_sharers::total         4667                      
system.ruby.L1Cache_Controller.I.Load    |        4134    100.00%    100.00% |           0      0.00%    100.00%
system.ruby.L1Cache_Controller.I.Load::total         4134                      
system.ruby.L1Cache_Controller.I.Ifetch  |         417    100.00%    100.00% |           0      0.00%    100.00%
system.ruby.L1Cache_Controller.I.Ifetch::total          417                      
system.ruby.L1Cache_Controller.I.Store   |         116    100.00%    100.00% |           0      0.00%    100.00%
system.ruby.L1Cache_Controller.I.Store::total          116                      
system.ruby.L1Cache_Controller.I.Other_GETX |      109868     49.46%     49.46% |      112255     50.54%    100.00%
system.ruby.L1Cache_Controller.I.Other_GETX::total       222123                      
system.ruby.L1Cache_Controller.I.Other_GETS |      108640     48.21%     48.21% |      116690     51.79%    100.00%
system.ruby.L1Cache_Controller.I.Other_GETS::total       225330                      
system.ruby.L1Cache_Controller.O.L2_Replacement |        1193    100.00%    100.00% |           0      0.00%    100.00%
system.ruby.L1Cache_Controller.O.L2_Replacement::total         1193                      
system.ruby.L1Cache_Controller.O.L1_to_L2 |         129    100.00%    100.00% |           0      0.00%    100.00%
system.ruby.L1Cache_Controller.O.L1_to_L2::total          129                      
system.ruby.L1Cache_Controller.O.Other_GETX |         504    100.00%    100.00% |           0      0.00%    100.00%
system.ruby.L1Cache_Controller.O.Other_GETX::total          504                      
system.ruby.L1Cache_Controller.O.Other_GETS |        1223    100.00%    100.00% |           0      0.00%    100.00%
system.ruby.L1Cache_Controller.O.Other_GETS::total         1223                      
system.ruby.L1Cache_Controller.M.Load    |        4866    100.00%    100.00% |           0      0.00%    100.00%
system.ruby.L1Cache_Controller.M.Load::total         4866                      
system.ruby.L1Cache_Controller.M.Ifetch  |      396058    100.00%    100.00% |           0      0.00%    100.00%
system.ruby.L1Cache_Controller.M.Ifetch::total       396058                      
system.ruby.L1Cache_Controller.M.Store   |          24    100.00%    100.00% |           0      0.00%    100.00%
system.ruby.L1Cache_Controller.M.Store::total           24                      
system.ruby.L1Cache_Controller.M.L2_Replacement |          23    100.00%    100.00% |           0      0.00%    100.00%
system.ruby.L1Cache_Controller.M.L2_Replacement::total           23                      
system.ruby.L1Cache_Controller.M.L1_to_L2 |        4342    100.00%    100.00% |           0      0.00%    100.00%
system.ruby.L1Cache_Controller.M.L1_to_L2::total         4342                      
system.ruby.L1Cache_Controller.M.Trigger_L2_to_L1D |           2    100.00%    100.00% |           0      0.00%    100.00%
system.ruby.L1Cache_Controller.M.Trigger_L2_to_L1D::total            2                      
system.ruby.L1Cache_Controller.M.Trigger_L2_to_L1I |         446    100.00%    100.00% |           0      0.00%    100.00%
system.ruby.L1Cache_Controller.M.Trigger_L2_to_L1I::total          446                      
system.ruby.L1Cache_Controller.M.Other_GETX |        1761    100.00%    100.00% |           0      0.00%    100.00%
system.ruby.L1Cache_Controller.M.Other_GETX::total         1761                      
system.ruby.L1Cache_Controller.M.Other_GETS |        2270    100.00%    100.00% |           0      0.00%    100.00%
system.ruby.L1Cache_Controller.M.Other_GETS::total         2270                      
system.ruby.L1Cache_Controller.MM.Load   |       53612    100.00%    100.00% |           0      0.00%    100.00%
system.ruby.L1Cache_Controller.MM.Load::total        53612                      
system.ruby.L1Cache_Controller.MM.Store  |       45792    100.00%    100.00% |           0      0.00%    100.00%
system.ruby.L1Cache_Controller.MM.Store::total        45792                      
system.ruby.L1Cache_Controller.MM.L2_Replacement |           6    100.00%    100.00% |           0      0.00%    100.00%
system.ruby.L1Cache_Controller.MM.L2_Replacement::total            6                      
system.ruby.L1Cache_Controller.MM.L1_to_L2 |          54    100.00%    100.00% |           0      0.00%    100.00%
system.ruby.L1Cache_Controller.MM.L1_to_L2::total           54                      
system.ruby.L1Cache_Controller.MM.Trigger_L2_to_L1D |          25    100.00%    100.00% |           0      0.00%    100.00%
system.ruby.L1Cache_Controller.MM.Trigger_L2_to_L1D::total           25                      
system.ruby.L1Cache_Controller.MM.Other_GETX |           6    100.00%    100.00% |           0      0.00%    100.00%
system.ruby.L1Cache_Controller.MM.Other_GETX::total            6                      
system.ruby.L1Cache_Controller.MM.Other_GETS |           6    100.00%    100.00% |           0      0.00%    100.00%
system.ruby.L1Cache_Controller.MM.Other_GETS::total            6                      
system.ruby.L1Cache_Controller.MR.Load   |           2    100.00%    100.00% |           0      0.00%    100.00%
system.ruby.L1Cache_Controller.MR.Load::total            2                      
system.ruby.L1Cache_Controller.MR.Ifetch |         446    100.00%    100.00% |           0      0.00%    100.00%
system.ruby.L1Cache_Controller.MR.Ifetch::total          446                      
system.ruby.L1Cache_Controller.MMR.Load  |          10    100.00%    100.00% |           0      0.00%    100.00%
system.ruby.L1Cache_Controller.MMR.Load::total           10                      
system.ruby.L1Cache_Controller.MMR.Store |          15    100.00%    100.00% |           0      0.00%    100.00%
system.ruby.L1Cache_Controller.MMR.Store::total           15                      
system.ruby.L1Cache_Controller.IM.Ack    |         232    100.00%    100.00% |           0      0.00%    100.00%
system.ruby.L1Cache_Controller.IM.Ack::total          232                      
system.ruby.L1Cache_Controller.IM.Exclusive_Data |         116    100.00%    100.00% |           0      0.00%    100.00%
system.ruby.L1Cache_Controller.IM.Exclusive_Data::total          116                      
system.ruby.L1Cache_Controller.M_W.All_acks_no_sharers |        4551    100.00%    100.00% |           0      0.00%    100.00%
system.ruby.L1Cache_Controller.M_W.All_acks_no_sharers::total         4551                      
system.ruby.L1Cache_Controller.MM_W.All_acks_no_sharers |         116    100.00%    100.00% |           0      0.00%    100.00%
system.ruby.L1Cache_Controller.MM_W.All_acks_no_sharers::total          116                      
system.ruby.L1Cache_Controller.IS.Ack    |        9102    100.00%    100.00% |           0      0.00%    100.00%
system.ruby.L1Cache_Controller.IS.Ack::total         9102                      
system.ruby.L1Cache_Controller.IS.Exclusive_Data |        4551    100.00%    100.00% |           0      0.00%    100.00%
system.ruby.L1Cache_Controller.IS.Exclusive_Data::total         4551                      
system.ruby.L1Cache_Controller.OI.Writeback_Ack |        1193    100.00%    100.00% |           0      0.00%    100.00%
system.ruby.L1Cache_Controller.OI.Writeback_Ack::total         1193                      
system.ruby.L1Cache_Controller.MI.Writeback_Ack |          29    100.00%    100.00% |           0      0.00%    100.00%
system.ruby.L1Cache_Controller.MI.Writeback_Ack::total           29                      
system.ruby.L1Cache_Controller.MT.Complete_L2_to_L1 |         448    100.00%    100.00% |           0      0.00%    100.00%
system.ruby.L1Cache_Controller.MT.Complete_L2_to_L1::total          448                      
system.ruby.L1Cache_Controller.MMT.Complete_L2_to_L1 |          25    100.00%    100.00% |           0      0.00%    100.00%
system.ruby.L1Cache_Controller.MMT.Complete_L2_to_L1::total           25                      
system.ruby.GPUL2Cache_Controller.Other_GETX       112255      0.00%      0.00%
system.ruby.GPUL2Cache_Controller.Other_GETS       116690      0.00%      0.00%
system.ruby.GPUL2Cache_Controller.I.Other_GETX       112255      0.00%      0.00%
system.ruby.GPUL2Cache_Controller.I.Other_GETS       116690      0.00%      0.00%

---------- End Simulation Statistics   ----------
