
---------- Begin Simulation Statistics ----------
sim_seconds                                  0.017920                       # Number of seconds simulated
sim_ticks                                 17920337500                       # Number of ticks simulated
final_tick                                17920337500                       # Number of ticks from beginning of simulation (restored from checkpoints and never reset)
sim_freq                                 1000000000000                       # Frequency of simulated ticks
host_inst_rate                                 251094                       # Simulator instruction rate (inst/s)
host_op_rate                                   479697                       # Simulator op (including micro ops) rate (op/s)
host_tick_rate                              907133334                       # Simulator tick rate (ticks/s)
host_mem_usage                                2425504                       # Number of bytes of host memory used
host_seconds                                    19.76                       # Real time elapsed on the host
sim_insts                                     4960342                       # Number of instructions simulated
sim_ops                                       9476372                       # Number of ops (including micro ops) simulated
system.voltage_domain.voltage                       1                       # Voltage in Volts
system.clk_domain.clock                          1000                       # Clock period in ticks
system.mem_ctrls.bytes_read::gpu.shader_cores0.data        35072                       # Number of bytes read from this memory
system.mem_ctrls.bytes_read::gpu.shader_cores0.inst          288                       # Number of bytes read from this memory
system.mem_ctrls.bytes_read::gpu.shader_cores1.data        35456                       # Number of bytes read from this memory
system.mem_ctrls.bytes_read::gpu.shader_cores1.inst          312                       # Number of bytes read from this memory
system.mem_ctrls.bytes_read::gpu.shader_cores2.data        35072                       # Number of bytes read from this memory
system.mem_ctrls.bytes_read::gpu.shader_cores2.inst          288                       # Number of bytes read from this memory
system.mem_ctrls.bytes_read::gpu.shader_cores3.data        34816                       # Number of bytes read from this memory
system.mem_ctrls.bytes_read::gpu.shader_cores3.inst          288                       # Number of bytes read from this memory
system.mem_ctrls.bytes_read::gpu.ce             73052                       # Number of bytes read from this memory
system.mem_ctrls.bytes_read::cpu.inst        53320888                       # Number of bytes read from this memory
system.mem_ctrls.bytes_read::cpu.data         7972111                       # Number of bytes read from this memory
system.mem_ctrls.bytes_read::total           61507643                       # Number of bytes read from this memory
system.mem_ctrls.bytes_inst_read::gpu.shader_cores0.inst          288                       # Number of instructions bytes read from this memory
system.mem_ctrls.bytes_inst_read::gpu.shader_cores1.inst          312                       # Number of instructions bytes read from this memory
system.mem_ctrls.bytes_inst_read::gpu.shader_cores2.inst          288                       # Number of instructions bytes read from this memory
system.mem_ctrls.bytes_inst_read::gpu.shader_cores3.inst          288                       # Number of instructions bytes read from this memory
system.mem_ctrls.bytes_inst_read::cpu.inst     53320888                       # Number of instructions bytes read from this memory
system.mem_ctrls.bytes_inst_read::total      53322064                       # Number of instructions bytes read from this memory
system.mem_ctrls.bytes_written::gpu.shader_cores0.data        12544                       # Number of bytes written to this memory
system.mem_ctrls.bytes_written::gpu.shader_cores1.data        12672                       # Number of bytes written to this memory
system.mem_ctrls.bytes_written::gpu.shader_cores2.data        12544                       # Number of bytes written to this memory
system.mem_ctrls.bytes_written::gpu.shader_cores3.data        12544                       # Number of bytes written to this memory
system.mem_ctrls.bytes_written::gpu.ce          73052                       # Number of bytes written to this memory
system.mem_ctrls.bytes_written::cpu.data      4969927                       # Number of bytes written to this memory
system.mem_ctrls.bytes_written::total         5093283                       # Number of bytes written to this memory
system.mem_ctrls.num_reads::gpu.shader_cores0.data          428                       # Number of read requests responded to by this memory
system.mem_ctrls.num_reads::gpu.shader_cores0.inst           12                       # Number of read requests responded to by this memory
system.mem_ctrls.num_reads::gpu.shader_cores1.data          421                       # Number of read requests responded to by this memory
system.mem_ctrls.num_reads::gpu.shader_cores1.inst           13                       # Number of read requests responded to by this memory
system.mem_ctrls.num_reads::gpu.shader_cores2.data          428                       # Number of read requests responded to by this memory
system.mem_ctrls.num_reads::gpu.shader_cores2.inst           12                       # Number of read requests responded to by this memory
system.mem_ctrls.num_reads::gpu.shader_cores3.data          416                       # Number of read requests responded to by this memory
system.mem_ctrls.num_reads::gpu.shader_cores3.inst           12                       # Number of read requests responded to by this memory
system.mem_ctrls.num_reads::gpu.ce                577                       # Number of read requests responded to by this memory
system.mem_ctrls.num_reads::cpu.inst          6665111                       # Number of read requests responded to by this memory
system.mem_ctrls.num_reads::cpu.data          1297860                       # Number of read requests responded to by this memory
system.mem_ctrls.num_reads::total             7965290                       # Number of read requests responded to by this memory
system.mem_ctrls.num_writes::gpu.shader_cores0.data          308                       # Number of write requests responded to by this memory
system.mem_ctrls.num_writes::gpu.shader_cores1.data          322                       # Number of write requests responded to by this memory
system.mem_ctrls.num_writes::gpu.shader_cores2.data          308                       # Number of write requests responded to by this memory
system.mem_ctrls.num_writes::gpu.shader_cores3.data          320                       # Number of write requests responded to by this memory
system.mem_ctrls.num_writes::gpu.ce               576                       # Number of write requests responded to by this memory
system.mem_ctrls.num_writes::cpu.data          788149                       # Number of write requests responded to by this memory
system.mem_ctrls.num_writes::total             789983                       # Number of write requests responded to by this memory
system.mem_ctrls.bw_read::gpu.shader_cores0.data      1957106                       # Total read bandwidth from this memory (bytes/s)
system.mem_ctrls.bw_read::gpu.shader_cores0.inst        16071                       # Total read bandwidth from this memory (bytes/s)
system.mem_ctrls.bw_read::gpu.shader_cores1.data      1978534                       # Total read bandwidth from this memory (bytes/s)
system.mem_ctrls.bw_read::gpu.shader_cores1.inst        17410                       # Total read bandwidth from this memory (bytes/s)
system.mem_ctrls.bw_read::gpu.shader_cores2.data      1957106                       # Total read bandwidth from this memory (bytes/s)
system.mem_ctrls.bw_read::gpu.shader_cores2.inst        16071                       # Total read bandwidth from this memory (bytes/s)
system.mem_ctrls.bw_read::gpu.shader_cores3.data      1942821                       # Total read bandwidth from this memory (bytes/s)
system.mem_ctrls.bw_read::gpu.shader_cores3.inst        16071                       # Total read bandwidth from this memory (bytes/s)
system.mem_ctrls.bw_read::gpu.ce              4076486                       # Total read bandwidth from this memory (bytes/s)
system.mem_ctrls.bw_read::cpu.inst         2975439944                       # Total read bandwidth from this memory (bytes/s)
system.mem_ctrls.bw_read::cpu.data          444863887                       # Total read bandwidth from this memory (bytes/s)
system.mem_ctrls.bw_read::total            3432281507                       # Total read bandwidth from this memory (bytes/s)
system.mem_ctrls.bw_inst_read::gpu.shader_cores0.inst        16071                       # Instruction read bandwidth from this memory (bytes/s)
system.mem_ctrls.bw_inst_read::gpu.shader_cores1.inst        17410                       # Instruction read bandwidth from this memory (bytes/s)
system.mem_ctrls.bw_inst_read::gpu.shader_cores2.inst        16071                       # Instruction read bandwidth from this memory (bytes/s)
system.mem_ctrls.bw_inst_read::gpu.shader_cores3.inst        16071                       # Instruction read bandwidth from this memory (bytes/s)
system.mem_ctrls.bw_inst_read::cpu.inst    2975439944                       # Instruction read bandwidth from this memory (bytes/s)
system.mem_ctrls.bw_inst_read::total       2975505567                       # Instruction read bandwidth from this memory (bytes/s)
system.mem_ctrls.bw_write::gpu.shader_cores0.data       699987                       # Write bandwidth from this memory (bytes/s)
system.mem_ctrls.bw_write::gpu.shader_cores1.data       707130                       # Write bandwidth from this memory (bytes/s)
system.mem_ctrls.bw_write::gpu.shader_cores2.data       699987                       # Write bandwidth from this memory (bytes/s)
system.mem_ctrls.bw_write::gpu.shader_cores3.data       699987                       # Write bandwidth from this memory (bytes/s)
system.mem_ctrls.bw_write::gpu.ce             4076486                       # Write bandwidth from this memory (bytes/s)
system.mem_ctrls.bw_write::cpu.data         277334453                       # Write bandwidth from this memory (bytes/s)
system.mem_ctrls.bw_write::total            284218029                       # Write bandwidth from this memory (bytes/s)
system.mem_ctrls.bw_total::gpu.shader_cores0.data      2657093                       # Total bandwidth to/from this memory (bytes/s)
system.mem_ctrls.bw_total::gpu.shader_cores0.inst        16071                       # Total bandwidth to/from this memory (bytes/s)
system.mem_ctrls.bw_total::gpu.shader_cores1.data      2685664                       # Total bandwidth to/from this memory (bytes/s)
system.mem_ctrls.bw_total::gpu.shader_cores1.inst        17410                       # Total bandwidth to/from this memory (bytes/s)
system.mem_ctrls.bw_total::gpu.shader_cores2.data      2657093                       # Total bandwidth to/from this memory (bytes/s)
system.mem_ctrls.bw_total::gpu.shader_cores2.inst        16071                       # Total bandwidth to/from this memory (bytes/s)
system.mem_ctrls.bw_total::gpu.shader_cores3.data      2642807                       # Total bandwidth to/from this memory (bytes/s)
system.mem_ctrls.bw_total::gpu.shader_cores3.inst        16071                       # Total bandwidth to/from this memory (bytes/s)
system.mem_ctrls.bw_total::gpu.ce             8152971                       # Total bandwidth to/from this memory (bytes/s)
system.mem_ctrls.bw_total::cpu.inst        2975439944                       # Total bandwidth to/from this memory (bytes/s)
system.mem_ctrls.bw_total::cpu.data         722198340                       # Total bandwidth to/from this memory (bytes/s)
system.mem_ctrls.bw_total::total           3716499536                       # Total bandwidth to/from this memory (bytes/s)
system.ruby_clk_domain.clock                      500                       # Clock period in ticks
system.ruby.delayHist::bucket_size                 16                       # delay histogram for all message
system.ruby.delayHist::max_bucket                 159                       # delay histogram for all message
system.ruby.delayHist::samples                  11884                       # delay histogram for all message
system.ruby.delayHist::mean                  1.390946                       # delay histogram for all message
system.ruby.delayHist::stdev                 6.091629                       # delay histogram for all message
system.ruby.delayHist                    |       11426     96.15%     96.15% |         387      3.26%     99.40% |          43      0.36%     99.76% |          14      0.12%     99.88% |           7      0.06%     99.94% |           2      0.02%     99.96% |           1      0.01%     99.97% |           1      0.01%     99.97% |           3      0.03%    100.00% |           0      0.00%    100.00% # delay histogram for all message
system.ruby.delayHist::total                    11884                       # delay histogram for all message
system.ruby.outstanding_req_hist::bucket_size            8                      
system.ruby.outstanding_req_hist::max_bucket           79                      
system.ruby.outstanding_req_hist::samples      8755274                      
system.ruby.outstanding_req_hist::mean       1.009178                      
system.ruby.outstanding_req_hist::gmean      1.000947                      
system.ruby.outstanding_req_hist::stdev      0.680220                      
system.ruby.outstanding_req_hist         |     8753401     99.98%     99.98% |         243      0.00%     99.98% |         275      0.00%     99.98% |         187      0.00%     99.99% |         241      0.00%     99.99% |          37      0.00%     99.99% |          36      0.00%     99.99% |          48      0.00%     99.99% |         806      0.01%    100.00% |           0      0.00%    100.00%
system.ruby.outstanding_req_hist::total       8755274                      
system.ruby.latency_hist::bucket_size             256                      
system.ruby.latency_hist::max_bucket             2559                      
system.ruby.latency_hist::samples             8755273                      
system.ruby.latency_hist::mean               3.284469                      
system.ruby.latency_hist::gmean              3.008818                      
system.ruby.latency_hist::stdev             16.203688                      
system.ruby.latency_hist                 |     8753818     99.98%     99.98% |         171      0.00%     99.99% |         166      0.00%     99.99% |         179      0.00%     99.99% |         327      0.00%     99.99% |         320      0.00%    100.00% |         256      0.00%    100.00% |          26      0.00%    100.00% |           8      0.00%    100.00% |           2      0.00%    100.00%
system.ruby.latency_hist::total               8755273                      
system.ruby.hit_latency_hist::bucket_size            1                      
system.ruby.hit_latency_hist::max_bucket            9                      
system.ruby.hit_latency_hist::samples         8749000                      
system.ruby.hit_latency_hist::mean           2.999547                      
system.ruby.hit_latency_hist::gmean          2.999254                      
system.ruby.hit_latency_hist::stdev          0.030092                      
system.ruby.hit_latency_hist             |           0      0.00%      0.00% |        1981      0.02%      0.02% |           0      0.00%      0.02% |     8747019     99.98%    100.00% |           0      0.00%    100.00% |           0      0.00%    100.00% |           0      0.00%    100.00% |           0      0.00%    100.00% |           0      0.00%    100.00% |           0      0.00%    100.00%
system.ruby.hit_latency_hist::total           8749000                      
system.ruby.miss_latency_hist::bucket_size          256                      
system.ruby.miss_latency_hist::max_bucket         2559                      
system.ruby.miss_latency_hist::samples           6273                      
system.ruby.miss_latency_hist::mean        400.667145                      
system.ruby.miss_latency_hist::gmean       255.234688                      
system.ruby.miss_latency_hist::stdev       456.576346                      
system.ruby.miss_latency_hist            |        4818     76.81%     76.81% |         171      2.73%     79.53% |         166      2.65%     82.18% |         179      2.85%     85.03% |         327      5.21%     90.24% |         320      5.10%     95.35% |         256      4.08%     99.43% |          26      0.41%     99.84% |           8      0.13%     99.97% |           2      0.03%    100.00%
system.ruby.miss_latency_hist::total             6273                      
system.ruby.L1Cache.incomplete_times             1082                      
system.ruby.Directory.incomplete_times           5190                      
system.ruby.l1_cntrl_ce.cacheMemory.demand_hits            0                       # Number of cache demand hits
system.ruby.l1_cntrl_ce.cacheMemory.demand_misses         1153                       # Number of cache demand misses
system.ruby.l1_cntrl_ce.cacheMemory.demand_accesses         1153                       # Number of cache demand accesses
system.ruby.l1_cntrl_ce.fully_busy_cycles            2                       # cycles for which number of transistions == max transitions
system.ruby.l1_cntrl0.cacheMemory.demand_hits      8747019                       # Number of cache demand hits
system.ruby.l1_cntrl0.cacheMemory.demand_misses         4101                       # Number of cache demand misses
system.ruby.l1_cntrl0.cacheMemory.demand_accesses      8751120                       # Number of cache demand accesses
system.ruby.network.routers0.percent_links_utilized     0.096716                      
system.ruby.network.routers0.msg_count.Control::2         4101                      
system.ruby.network.routers0.msg_count.Data::2         3433                      
system.ruby.network.routers0.msg_count.Response_Data::4         4270                      
system.ruby.network.routers0.msg_count.Writeback_Control::3         3602                      
system.ruby.network.routers0.msg_bytes.Control::2        32808                      
system.ruby.network.routers0.msg_bytes.Data::2       466888                      
system.ruby.network.routers0.msg_bytes.Response_Data::4       580720                      
system.ruby.network.routers0.msg_bytes.Writeback_Control::3        28816                      
system.ruby.dir_cntrl0.memBuffer.clk_domain.clock         2500                       # Clock period in ticks
system.ruby.dir_cntrl0.memBuffer.memReq          9720                       # Total number of memory requests
system.ruby.dir_cntrl0.memBuffer.memRead         5191                       # Number of memory reads
system.ruby.dir_cntrl0.memBuffer.memWrite         4529                       # Number of memory writes
system.ruby.dir_cntrl0.memBuffer.memRefresh        44540                       # Number of memory refreshes
system.ruby.dir_cntrl0.memBuffer.memWaitCycles        75139                       # Delay stalled at the head of the bank queue
system.ruby.dir_cntrl0.memBuffer.memInputQ         9800                       # Delay in the input queue
system.ruby.dir_cntrl0.memBuffer.memBankQ        35182                       # Delay behind the head of the bank queue
system.ruby.dir_cntrl0.memBuffer.totalStalls       120121                       # Total number of stall cycles
system.ruby.dir_cntrl0.memBuffer.stallsPerReq    12.358128                       # Expected number of stall cycles per request
system.ruby.dir_cntrl0.memBuffer.memBankBusy        42860                       # memory stalls due to busy bank
system.ruby.dir_cntrl0.memBuffer.memBusBusy        12095                       # memory stalls due to busy bus
system.ruby.dir_cntrl0.memBuffer.memReadWriteBusy         2323                       # memory stalls due to read write turnaround
system.ruby.dir_cntrl0.memBuffer.memDataBusBusy         1813                       # memory stalls due to read read turnaround
system.ruby.dir_cntrl0.memBuffer.memArbWait         8631                       # memory stalls due to arbitration
system.ruby.dir_cntrl0.memBuffer.memNotOld         7417                       # memory stalls due to anti starvation
system.ruby.dir_cntrl0.memBuffer.memBankCount |         218      2.24%      2.24% |         209      2.15%      4.39% |         442      4.55%      8.94% |         222      2.28%     11.22% |         326      3.35%     14.58% |         174      1.79%     16.37% |         346      3.56%     19.93% |         343      3.53%     23.46% |         178      1.83%     25.29% |         552      5.68%     30.97% |         192      1.98%     32.94% |         162      1.67%     34.61% |         168      1.73%     36.34% |         178      1.83%     38.17% |         180      1.85%     40.02% |        1710     17.59%     57.61% |         226      2.33%     59.94% |         398      4.09%     64.03% |         187      1.92%     65.96% |         198      2.04%     67.99% |         171      1.76%     69.75% |         164      1.69%     71.44% |         194      2.00%     73.44% |         200      2.06%     75.49% |         250      2.57%     78.07% |         210      2.16%     80.23% |         198      2.04%     82.26% |         678      6.98%     89.24% |         446      4.59%     93.83% |         208      2.14%     95.97% |         196      2.02%     97.98% |         196      2.02%    100.00% # Number of accesses per bank
system.ruby.dir_cntrl0.memBuffer.memBankCount::total         9720                       # Number of accesses per bank
system.ruby.dir_cntrl0.fully_busy_cycles           27                       # cycles for which number of transistions == max transitions
system.ruby.network.routers1.percent_links_utilized     0.123550                      
system.ruby.network.routers1.msg_count.Control::2         6273                      
system.ruby.network.routers1.msg_count.Data::2         4529                      
system.ruby.network.routers1.msg_count.Response_Data::4         5191                      
system.ruby.network.routers1.msg_count.Writeback_Control::3         5611                      
system.ruby.network.routers1.msg_bytes.Control::2        50184                      
system.ruby.network.routers1.msg_bytes.Data::2       615944                      
system.ruby.network.routers1.msg_bytes.Response_Data::4       705976                      
system.ruby.network.routers1.msg_bytes.Writeback_Control::3        44888                      
system.ruby.l1_cntrl_sp00.cacheMemory.demand_hits          501                       # Number of cache demand hits
system.ruby.l1_cntrl_sp00.cacheMemory.demand_misses          247                       # Number of cache demand misses
system.ruby.l1_cntrl_sp00.cacheMemory.demand_accesses          748                       # Number of cache demand accesses
system.ruby.network.routers2.percent_links_utilized     0.005826                      
system.ruby.network.routers2.msg_count.Control::2          247                      
system.ruby.network.routers2.msg_count.Response_Data::4          464                      
system.ruby.network.routers2.msg_count.Writeback_Control::3          217                      
system.ruby.network.routers2.msg_bytes.Control::2         1976                      
system.ruby.network.routers2.msg_bytes.Response_Data::4        63104                      
system.ruby.network.routers2.msg_bytes.Writeback_Control::3         1736                      
system.ruby.l1_cntrl_sp01.cacheMemory.demand_hits          501                       # Number of cache demand hits
system.ruby.l1_cntrl_sp01.cacheMemory.demand_misses          255                       # Number of cache demand misses
system.ruby.l1_cntrl_sp01.cacheMemory.demand_accesses          756                       # Number of cache demand accesses
system.ruby.network.routers3.percent_links_utilized     0.005889                      
system.ruby.network.routers3.msg_count.Control::2          255                      
system.ruby.network.routers3.msg_count.Response_Data::4          469                      
system.ruby.network.routers3.msg_count.Writeback_Control::3          214                      
system.ruby.network.routers3.msg_bytes.Control::2         2040                      
system.ruby.network.routers3.msg_bytes.Response_Data::4        63784                      
system.ruby.network.routers3.msg_bytes.Writeback_Control::3         1712                      
system.ruby.l1_cntrl_sp02.cacheMemory.demand_hits          488                       # Number of cache demand hits
system.ruby.l1_cntrl_sp02.cacheMemory.demand_misses          260                       # Number of cache demand misses
system.ruby.l1_cntrl_sp02.cacheMemory.demand_accesses          748                       # Number of cache demand accesses
system.ruby.network.routers4.percent_links_utilized     0.006089                      
system.ruby.network.routers4.msg_count.Control::2          260                      
system.ruby.network.routers4.msg_count.Response_Data::4          485                      
system.ruby.network.routers4.msg_count.Writeback_Control::3          225                      
system.ruby.network.routers4.msg_bytes.Control::2         2080                      
system.ruby.network.routers4.msg_bytes.Response_Data::4        65960                      
system.ruby.network.routers4.msg_bytes.Writeback_Control::3         1800                      
system.ruby.l1_cntrl_sp03.cacheMemory.demand_hits          491                       # Number of cache demand hits
system.ruby.l1_cntrl_sp03.cacheMemory.demand_misses          257                       # Number of cache demand misses
system.ruby.l1_cntrl_sp03.cacheMemory.demand_accesses          748                       # Number of cache demand accesses
system.ruby.network.routers5.percent_links_utilized     0.005926                      
system.ruby.network.routers5.msg_count.Control::2          257                      
system.ruby.network.routers5.msg_count.Response_Data::4          472                      
system.ruby.network.routers5.msg_count.Writeback_Control::3          215                      
system.ruby.network.routers5.msg_bytes.Control::2         2056                      
system.ruby.network.routers5.msg_bytes.Response_Data::4        64192                      
system.ruby.network.routers5.msg_bytes.Writeback_Control::3         1720                      
system.ruby.l1_pw_cntrl.cacheMemory.demand_hits            0                       # Number of cache demand hits
system.ruby.l1_pw_cntrl.cacheMemory.demand_misses            0                       # Number of cache demand misses
system.ruby.l1_pw_cntrl.cacheMemory.demand_accesses            0                       # Number of cache demand accesses
system.ruby.network.routers6.percent_links_utilized            0                      
system.ruby.network.routers7.percent_links_utilized     0.028765                      
system.ruby.network.routers7.msg_count.Control::2         1153                      
system.ruby.network.routers7.msg_count.Data::2         1096                      
system.ruby.network.routers7.msg_count.Response_Data::4         1195                      
system.ruby.network.routers7.msg_count.Writeback_Control::3         1138                      
system.ruby.network.routers7.msg_bytes.Control::2         9224                      
system.ruby.network.routers7.msg_bytes.Data::2       149056                      
system.ruby.network.routers7.msg_bytes.Response_Data::4       162520                      
system.ruby.network.routers7.msg_bytes.Writeback_Control::3         9104                      
system.ruby.network.routers8.percent_links_utilized     0.034095                      
system.ruby.network.routers8.msg_count.Control::2         6273                      
system.ruby.network.routers8.msg_count.Data::2         4529                      
system.ruby.network.routers8.msg_count.Response_Data::4         6273                      
system.ruby.network.routers8.msg_count.Writeback_Control::3         5611                      
system.ruby.network.routers8.msg_bytes.Control::2        50184                      
system.ruby.network.routers8.msg_bytes.Data::2       615944                      
system.ruby.network.routers8.msg_bytes.Response_Data::4       853128                      
system.ruby.network.routers8.msg_bytes.Writeback_Control::3        44888                      
system.ruby.network.msg_count.Control           18819                      
system.ruby.network.msg_count.Data              13587                      
system.ruby.network.msg_count.Response_Data        18819                      
system.ruby.network.msg_count.Writeback_Control        16833                      
system.ruby.network.msg_byte.Control           150552                      
system.ruby.network.msg_byte.Data             1847832                      
system.ruby.network.msg_byte.Response_Data      2559384                      
system.ruby.network.msg_byte.Writeback_Control       134664                      
system.ruby.memctrl_clk_domain.clock             1500                       # Clock period in ticks
system.cpu_voltage_domain.voltage                   1                       # Voltage in Volts
system.gpu.voltage_domain.voltage                   1                       # Voltage in Volts
system.gpu.clk_domain.clock                      1429                       # Clock period in ticks
system.gpu.shader_mmu.numPagefaults                 0                       # Number of Pagefaults
system.gpu.shader_mmu.numPagewalks                170                       # Number of Pagewalks
system.gpu.shader_mmu.totalRequests               170                       # Total number of requests
system.gpu.shader_mmu.retryFailures                 0                       # Times the retry walk after a pagefault failed
system.gpu.shader_mmu.l2hits                        0                       # Hits in the shared L2
system.gpu.shader_mmu.prefetchHits                  0                       # Number of prefetch hits
system.gpu.shader_mmu.numPrefetches                 0                       # Number of prefetchs
system.gpu.shader_mmu.prefetchFaults                0                       # Number of faults caused by prefetches
system.gpu.shader_mmu.pagefaultLatency::samples            0                       # Latency to complete the pagefault
system.gpu.shader_mmu.pagefaultLatency::mean          nan                       # Latency to complete the pagefault
system.gpu.shader_mmu.pagefaultLatency::gmean          nan                       # Latency to complete the pagefault
system.gpu.shader_mmu.pagefaultLatency::stdev          nan                       # Latency to complete the pagefault
system.gpu.shader_mmu.pagefaultLatency::0            0                       # Latency to complete the pagefault
system.gpu.shader_mmu.pagefaultLatency::1            0                       # Latency to complete the pagefault
system.gpu.shader_mmu.pagefaultLatency::2            0                       # Latency to complete the pagefault
system.gpu.shader_mmu.pagefaultLatency::3            0                       # Latency to complete the pagefault
system.gpu.shader_mmu.pagefaultLatency::4            0                       # Latency to complete the pagefault
system.gpu.shader_mmu.pagefaultLatency::5            0                       # Latency to complete the pagefault
system.gpu.shader_mmu.pagefaultLatency::6            0                       # Latency to complete the pagefault
system.gpu.shader_mmu.pagefaultLatency::7            0                       # Latency to complete the pagefault
system.gpu.shader_mmu.pagefaultLatency::8            0                       # Latency to complete the pagefault
system.gpu.shader_mmu.pagefaultLatency::9            0                       # Latency to complete the pagefault
system.gpu.shader_mmu.pagefaultLatency::10            0                       # Latency to complete the pagefault
system.gpu.shader_mmu.pagefaultLatency::11            0                       # Latency to complete the pagefault
system.gpu.shader_mmu.pagefaultLatency::12            0                       # Latency to complete the pagefault
system.gpu.shader_mmu.pagefaultLatency::13            0                       # Latency to complete the pagefault
system.gpu.shader_mmu.pagefaultLatency::14            0                       # Latency to complete the pagefault
system.gpu.shader_mmu.pagefaultLatency::15            0                       # Latency to complete the pagefault
system.gpu.shader_mmu.pagefaultLatency::16            0                       # Latency to complete the pagefault
system.gpu.shader_mmu.pagefaultLatency::17            0                       # Latency to complete the pagefault
system.gpu.shader_mmu.pagefaultLatency::18            0                       # Latency to complete the pagefault
system.gpu.shader_mmu.pagefaultLatency::19            0                       # Latency to complete the pagefault
system.gpu.shader_mmu.pagefaultLatency::20            0                       # Latency to complete the pagefault
system.gpu.shader_mmu.pagefaultLatency::21            0                       # Latency to complete the pagefault
system.gpu.shader_mmu.pagefaultLatency::22            0                       # Latency to complete the pagefault
system.gpu.shader_mmu.pagefaultLatency::23            0                       # Latency to complete the pagefault
system.gpu.shader_mmu.pagefaultLatency::24            0                       # Latency to complete the pagefault
system.gpu.shader_mmu.pagefaultLatency::25            0                       # Latency to complete the pagefault
system.gpu.shader_mmu.pagefaultLatency::26            0                       # Latency to complete the pagefault
system.gpu.shader_mmu.pagefaultLatency::27            0                       # Latency to complete the pagefault
system.gpu.shader_mmu.pagefaultLatency::28            0                       # Latency to complete the pagefault
system.gpu.shader_mmu.pagefaultLatency::29            0                       # Latency to complete the pagefault
system.gpu.shader_mmu.pagefaultLatency::30            0                       # Latency to complete the pagefault
system.gpu.shader_mmu.pagefaultLatency::31            0                       # Latency to complete the pagefault
system.gpu.shader_mmu.pagefaultLatency::total            0                       # Latency to complete the pagefault
system.gpu.shader_mmu.concurrentWalks::samples          170                       # Number of outstanding walks
system.gpu.shader_mmu.concurrentWalks::mean            0                       # Number of outstanding walks
system.gpu.shader_mmu.concurrentWalks::gmean            0                       # Number of outstanding walks
system.gpu.shader_mmu.concurrentWalks::stdev            0                       # Number of outstanding walks
system.gpu.shader_mmu.concurrentWalks::0          170    100.00%    100.00% # Number of outstanding walks
system.gpu.shader_mmu.concurrentWalks::1            0      0.00%    100.00% # Number of outstanding walks
system.gpu.shader_mmu.concurrentWalks::2            0      0.00%    100.00% # Number of outstanding walks
system.gpu.shader_mmu.concurrentWalks::3            0      0.00%    100.00% # Number of outstanding walks
system.gpu.shader_mmu.concurrentWalks::4            0      0.00%    100.00% # Number of outstanding walks
system.gpu.shader_mmu.concurrentWalks::5            0      0.00%    100.00% # Number of outstanding walks
system.gpu.shader_mmu.concurrentWalks::6            0      0.00%    100.00% # Number of outstanding walks
system.gpu.shader_mmu.concurrentWalks::7            0      0.00%    100.00% # Number of outstanding walks
system.gpu.shader_mmu.concurrentWalks::8            0      0.00%    100.00% # Number of outstanding walks
system.gpu.shader_mmu.concurrentWalks::9            0      0.00%    100.00% # Number of outstanding walks
system.gpu.shader_mmu.concurrentWalks::10            0      0.00%    100.00% # Number of outstanding walks
system.gpu.shader_mmu.concurrentWalks::11            0      0.00%    100.00% # Number of outstanding walks
system.gpu.shader_mmu.concurrentWalks::12            0      0.00%    100.00% # Number of outstanding walks
system.gpu.shader_mmu.concurrentWalks::13            0      0.00%    100.00% # Number of outstanding walks
system.gpu.shader_mmu.concurrentWalks::14            0      0.00%    100.00% # Number of outstanding walks
system.gpu.shader_mmu.concurrentWalks::15            0      0.00%    100.00% # Number of outstanding walks
system.gpu.shader_mmu.concurrentWalks::total          170                       # Number of outstanding walks
system.gpu.shader_mmu.pagewalkLatency::samples          170                       # Latency to complete the pagewalk
system.gpu.shader_mmu.pagewalkLatency::mean            0                       # Latency to complete the pagewalk
system.gpu.shader_mmu.pagewalkLatency::gmean            0                       # Latency to complete the pagewalk
system.gpu.shader_mmu.pagewalkLatency::stdev            0                       # Latency to complete the pagewalk
system.gpu.shader_mmu.pagewalkLatency::0          170    100.00%    100.00% # Latency to complete the pagewalk
system.gpu.shader_mmu.pagewalkLatency::1            0      0.00%    100.00% # Latency to complete the pagewalk
system.gpu.shader_mmu.pagewalkLatency::2            0      0.00%    100.00% # Latency to complete the pagewalk
system.gpu.shader_mmu.pagewalkLatency::3            0      0.00%    100.00% # Latency to complete the pagewalk
system.gpu.shader_mmu.pagewalkLatency::4            0      0.00%    100.00% # Latency to complete the pagewalk
system.gpu.shader_mmu.pagewalkLatency::5            0      0.00%    100.00% # Latency to complete the pagewalk
system.gpu.shader_mmu.pagewalkLatency::6            0      0.00%    100.00% # Latency to complete the pagewalk
system.gpu.shader_mmu.pagewalkLatency::7            0      0.00%    100.00% # Latency to complete the pagewalk
system.gpu.shader_mmu.pagewalkLatency::8            0      0.00%    100.00% # Latency to complete the pagewalk
system.gpu.shader_mmu.pagewalkLatency::9            0      0.00%    100.00% # Latency to complete the pagewalk
system.gpu.shader_mmu.pagewalkLatency::10            0      0.00%    100.00% # Latency to complete the pagewalk
system.gpu.shader_mmu.pagewalkLatency::11            0      0.00%    100.00% # Latency to complete the pagewalk
system.gpu.shader_mmu.pagewalkLatency::12            0      0.00%    100.00% # Latency to complete the pagewalk
system.gpu.shader_mmu.pagewalkLatency::13            0      0.00%    100.00% # Latency to complete the pagewalk
system.gpu.shader_mmu.pagewalkLatency::14            0      0.00%    100.00% # Latency to complete the pagewalk
system.gpu.shader_mmu.pagewalkLatency::15            0      0.00%    100.00% # Latency to complete the pagewalk
system.gpu.shader_mmu.pagewalkLatency::16            0      0.00%    100.00% # Latency to complete the pagewalk
system.gpu.shader_mmu.pagewalkLatency::17            0      0.00%    100.00% # Latency to complete the pagewalk
system.gpu.shader_mmu.pagewalkLatency::18            0      0.00%    100.00% # Latency to complete the pagewalk
system.gpu.shader_mmu.pagewalkLatency::19            0      0.00%    100.00% # Latency to complete the pagewalk
system.gpu.shader_mmu.pagewalkLatency::20            0      0.00%    100.00% # Latency to complete the pagewalk
system.gpu.shader_mmu.pagewalkLatency::21            0      0.00%    100.00% # Latency to complete the pagewalk
system.gpu.shader_mmu.pagewalkLatency::22            0      0.00%    100.00% # Latency to complete the pagewalk
system.gpu.shader_mmu.pagewalkLatency::23            0      0.00%    100.00% # Latency to complete the pagewalk
system.gpu.shader_mmu.pagewalkLatency::24            0      0.00%    100.00% # Latency to complete the pagewalk
system.gpu.shader_mmu.pagewalkLatency::25            0      0.00%    100.00% # Latency to complete the pagewalk
system.gpu.shader_mmu.pagewalkLatency::26            0      0.00%    100.00% # Latency to complete the pagewalk
system.gpu.shader_mmu.pagewalkLatency::27            0      0.00%    100.00% # Latency to complete the pagewalk
system.gpu.shader_mmu.pagewalkLatency::28            0      0.00%    100.00% # Latency to complete the pagewalk
system.gpu.shader_mmu.pagewalkLatency::29            0      0.00%    100.00% # Latency to complete the pagewalk
system.gpu.shader_mmu.pagewalkLatency::30            0      0.00%    100.00% # Latency to complete the pagewalk
system.gpu.shader_mmu.pagewalkLatency::31            0      0.00%    100.00% # Latency to complete the pagewalk
system.gpu.shader_mmu.pagewalkLatency::total          170                       # Latency to complete the pagewalk
system.gpu.kernels_completed                        2                       # Number of kernels completed
system.gpu.shader_cores0.itb.hits                   0                       # Number of hits in this TLB
system.gpu.shader_cores0.itb.misses                 0                       # Number of misses in this TLB
system.gpu.shader_cores0.itb.hitRate              nan                       # Hit rate for this TLB
system.gpu.shader_cores0.local_loads                0                       # Number of loads from local space
system.gpu.shader_cores0.local_stores               0                       # Number of stores to local space
system.gpu.shader_cores0.shared_loads            5056                       # Number of loads from shared space
system.gpu.shader_cores0.shared_stores           3072                       # Number of stores to shared space
system.gpu.shader_cores0.param_kernel_loads         7296                       # Number of loads from kernel parameter space
system.gpu.shader_cores0.param_local_loads            0                       # Number of loads from local parameter space
system.gpu.shader_cores0.param_local_stores            0                       # Number of stores to local parameter space
system.gpu.shader_cores0.const_loads                0                       # Number of loads from constant space
system.gpu.shader_cores0.tex_loads                  0                       # Number of loads from texture space
system.gpu.shader_cores0.global_loads            8256                       # Number of loads from global space
system.gpu.shader_cores0.global_stores           3136                       # Number of stores to global space
system.gpu.shader_cores0.surf_loads                 0                       # Number of loads from surface space
system.gpu.shader_cores0.generic_loads              0                       # Number of loads from generic spaces (global, shared, local)
system.gpu.shader_cores0.generic_stores             0                       # Number of stores to generic spaces (global, shared, local)
system.gpu.shader_cores0.inst_cache_requests           12                       # Number of instruction cache requests sent
system.gpu.shader_cores0.inst_cache_retries            0                       # Number of instruction cache retries
system.gpu.shader_cores0.inst_counts::0             0                       # Inst counts: 1: ALU, 2: MAD, 3: CTRL, 4: SFU, 5: MEM, 6: TEX, 7: NOP
system.gpu.shader_cores0.inst_counts::1        130176                       # Inst counts: 1: ALU, 2: MAD, 3: CTRL, 4: SFU, 5: MEM, 6: TEX, 7: NOP
system.gpu.shader_cores0.inst_counts::2          2048                       # Inst counts: 1: ALU, 2: MAD, 3: CTRL, 4: SFU, 5: MEM, 6: TEX, 7: NOP
system.gpu.shader_cores0.inst_counts::3         20416                       # Inst counts: 1: ALU, 2: MAD, 3: CTRL, 4: SFU, 5: MEM, 6: TEX, 7: NOP
system.gpu.shader_cores0.inst_counts::4          6144                       # Inst counts: 1: ALU, 2: MAD, 3: CTRL, 4: SFU, 5: MEM, 6: TEX, 7: NOP
system.gpu.shader_cores0.inst_counts::5         26816                       # Inst counts: 1: ALU, 2: MAD, 3: CTRL, 4: SFU, 5: MEM, 6: TEX, 7: NOP
system.gpu.shader_cores0.inst_counts::6             0                       # Inst counts: 1: ALU, 2: MAD, 3: CTRL, 4: SFU, 5: MEM, 6: TEX, 7: NOP
system.gpu.shader_cores0.inst_counts::7             0                       # Inst counts: 1: ALU, 2: MAD, 3: CTRL, 4: SFU, 5: MEM, 6: TEX, 7: NOP
system.gpu.shader_cores0.activeCycles            7015                       # Number of cycles this shader was executing a CTA
system.gpu.shader_cores0.notStalledCycles         4726                       # Number of cycles this shader was actually executing at least one instance
system.gpu.shader_cores0.instInstances         185600                       # Total instructions executed by all PEs in the core
system.gpu.shader_cores0.instPerCycle       26.457591                       # Instruction instances per cycle
system.gpu.shader_cores0.kernels_completed            2                       # Number of kernels completed
system.gpu.shader_cores0.lsq.data_tlb.hits            0                       # Number of hits in this TLB
system.gpu.shader_cores0.lsq.data_tlb.misses            0                       # Number of misses in this TLB
system.gpu.shader_cores0.lsq.data_tlb.hitRate          nan                       # Hit rate for this TLB
system.gpu.shader_cores0.lsq.warpInstBufActive::samples      8736143                       # Histogram of number of active warp inst buffers at a given time
system.gpu.shader_cores0.lsq.warpInstBufActive::mean    12.665636                       # Histogram of number of active warp inst buffers at a given time
system.gpu.shader_cores0.lsq.warpInstBufActive::gmean          nan                       # Histogram of number of active warp inst buffers at a given time
system.gpu.shader_cores0.lsq.warpInstBufActive::stdev    12.749233                       # Histogram of number of active warp inst buffers at a given time
system.gpu.shader_cores0.lsq.warpInstBufActive::0      2466524     28.23%     28.23% # Histogram of number of active warp inst buffers at a given time
system.gpu.shader_cores0.lsq.warpInstBufActive::1       918784     10.52%     38.75% # Histogram of number of active warp inst buffers at a given time
system.gpu.shader_cores0.lsq.warpInstBufActive::2       302119      3.46%     42.21% # Histogram of number of active warp inst buffers at a given time
system.gpu.shader_cores0.lsq.warpInstBufActive::3       121963      1.40%     43.60% # Histogram of number of active warp inst buffers at a given time
system.gpu.shader_cores0.lsq.warpInstBufActive::4       123898      1.42%     45.02% # Histogram of number of active warp inst buffers at a given time
system.gpu.shader_cores0.lsq.warpInstBufActive::5        89671      1.03%     46.05% # Histogram of number of active warp inst buffers at a given time
system.gpu.shader_cores0.lsq.warpInstBufActive::6        94613      1.08%     47.13% # Histogram of number of active warp inst buffers at a given time
system.gpu.shader_cores0.lsq.warpInstBufActive::7        96246      1.10%     48.23% # Histogram of number of active warp inst buffers at a given time
system.gpu.shader_cores0.lsq.warpInstBufActive::8       261056      2.99%     51.22% # Histogram of number of active warp inst buffers at a given time
system.gpu.shader_cores0.lsq.warpInstBufActive::9       109485      1.25%     52.48% # Histogram of number of active warp inst buffers at a given time
system.gpu.shader_cores0.lsq.warpInstBufActive::10        88211      1.01%     53.49% # Histogram of number of active warp inst buffers at a given time
system.gpu.shader_cores0.lsq.warpInstBufActive::11        83912      0.96%     54.45% # Histogram of number of active warp inst buffers at a given time
system.gpu.shader_cores0.lsq.warpInstBufActive::12       166293      1.90%     56.35% # Histogram of number of active warp inst buffers at a given time
system.gpu.shader_cores0.lsq.warpInstBufActive::13        85903      0.98%     57.33% # Histogram of number of active warp inst buffers at a given time
system.gpu.shader_cores0.lsq.warpInstBufActive::14       153746      1.76%     59.09% # Histogram of number of active warp inst buffers at a given time
system.gpu.shader_cores0.lsq.warpInstBufActive::15       113393      1.30%     60.39% # Histogram of number of active warp inst buffers at a given time
system.gpu.shader_cores0.lsq.warpInstBufActive::16        99357      1.14%     61.53% # Histogram of number of active warp inst buffers at a given time
system.gpu.shader_cores0.lsq.warpInstBufActive::17        97833      1.12%     62.65% # Histogram of number of active warp inst buffers at a given time
system.gpu.shader_cores0.lsq.warpInstBufActive::18       151258      1.73%     64.38% # Histogram of number of active warp inst buffers at a given time
system.gpu.shader_cores0.lsq.warpInstBufActive::19        35119      0.40%     64.78% # Histogram of number of active warp inst buffers at a given time
system.gpu.shader_cores0.lsq.warpInstBufActive::20        38830      0.44%     65.23% # Histogram of number of active warp inst buffers at a given time
system.gpu.shader_cores0.lsq.warpInstBufActive::21        63758      0.73%     65.96% # Histogram of number of active warp inst buffers at a given time
system.gpu.shader_cores0.lsq.warpInstBufActive::22        53381      0.61%     66.57% # Histogram of number of active warp inst buffers at a given time
system.gpu.shader_cores0.lsq.warpInstBufActive::23        54398      0.62%     67.19% # Histogram of number of active warp inst buffers at a given time
system.gpu.shader_cores0.lsq.warpInstBufActive::24       152605      1.75%     68.94% # Histogram of number of active warp inst buffers at a given time
system.gpu.shader_cores0.lsq.warpInstBufActive::25       186783      2.14%     71.07% # Histogram of number of active warp inst buffers at a given time
system.gpu.shader_cores0.lsq.warpInstBufActive::26       192064      2.20%     73.27% # Histogram of number of active warp inst buffers at a given time
system.gpu.shader_cores0.lsq.warpInstBufActive::27       230725      2.64%     75.91% # Histogram of number of active warp inst buffers at a given time
system.gpu.shader_cores0.lsq.warpInstBufActive::28       313307      3.59%     79.50% # Histogram of number of active warp inst buffers at a given time
system.gpu.shader_cores0.lsq.warpInstBufActive::29       412242      4.72%     84.22% # Histogram of number of active warp inst buffers at a given time
system.gpu.shader_cores0.lsq.warpInstBufActive::30       292956      3.35%     87.57% # Histogram of number of active warp inst buffers at a given time
system.gpu.shader_cores0.lsq.warpInstBufActive::31       274229      3.14%     90.71% # Histogram of number of active warp inst buffers at a given time
system.gpu.shader_cores0.lsq.warpInstBufActive::32       805435      9.22%     99.93% # Histogram of number of active warp inst buffers at a given time
system.gpu.shader_cores0.lsq.warpInstBufActive::33         6046      0.07%    100.00% # Histogram of number of active warp inst buffers at a given time
system.gpu.shader_cores0.lsq.warpInstBufActive::34            0      0.00%    100.00% # Histogram of number of active warp inst buffers at a given time
system.gpu.shader_cores0.lsq.warpInstBufActive::35            0      0.00%    100.00% # Histogram of number of active warp inst buffers at a given time
system.gpu.shader_cores0.lsq.warpInstBufActive::36            0      0.00%    100.00% # Histogram of number of active warp inst buffers at a given time
system.gpu.shader_cores0.lsq.warpInstBufActive::37            0      0.00%    100.00% # Histogram of number of active warp inst buffers at a given time
system.gpu.shader_cores0.lsq.warpInstBufActive::38            0      0.00%    100.00% # Histogram of number of active warp inst buffers at a given time
system.gpu.shader_cores0.lsq.warpInstBufActive::39            0      0.00%    100.00% # Histogram of number of active warp inst buffers at a given time
system.gpu.shader_cores0.lsq.warpInstBufActive::40            0      0.00%    100.00% # Histogram of number of active warp inst buffers at a given time
system.gpu.shader_cores0.lsq.warpInstBufActive::41            0      0.00%    100.00% # Histogram of number of active warp inst buffers at a given time
system.gpu.shader_cores0.lsq.warpInstBufActive::42            0      0.00%    100.00% # Histogram of number of active warp inst buffers at a given time
system.gpu.shader_cores0.lsq.warpInstBufActive::43            0      0.00%    100.00% # Histogram of number of active warp inst buffers at a given time
system.gpu.shader_cores0.lsq.warpInstBufActive::44            0      0.00%    100.00% # Histogram of number of active warp inst buffers at a given time
system.gpu.shader_cores0.lsq.warpInstBufActive::45            0      0.00%    100.00% # Histogram of number of active warp inst buffers at a given time
system.gpu.shader_cores0.lsq.warpInstBufActive::46            0      0.00%    100.00% # Histogram of number of active warp inst buffers at a given time
system.gpu.shader_cores0.lsq.warpInstBufActive::47            0      0.00%    100.00% # Histogram of number of active warp inst buffers at a given time
system.gpu.shader_cores0.lsq.warpInstBufActive::48            0      0.00%    100.00% # Histogram of number of active warp inst buffers at a given time
system.gpu.shader_cores0.lsq.warpInstBufActive::49            0      0.00%    100.00% # Histogram of number of active warp inst buffers at a given time
system.gpu.shader_cores0.lsq.warpInstBufActive::50            0      0.00%    100.00% # Histogram of number of active warp inst buffers at a given time
system.gpu.shader_cores0.lsq.warpInstBufActive::51            0      0.00%    100.00% # Histogram of number of active warp inst buffers at a given time
system.gpu.shader_cores0.lsq.warpInstBufActive::52            0      0.00%    100.00% # Histogram of number of active warp inst buffers at a given time
system.gpu.shader_cores0.lsq.warpInstBufActive::53            0      0.00%    100.00% # Histogram of number of active warp inst buffers at a given time
system.gpu.shader_cores0.lsq.warpInstBufActive::54            0      0.00%    100.00% # Histogram of number of active warp inst buffers at a given time
system.gpu.shader_cores0.lsq.warpInstBufActive::55            0      0.00%    100.00% # Histogram of number of active warp inst buffers at a given time
system.gpu.shader_cores0.lsq.warpInstBufActive::56            0      0.00%    100.00% # Histogram of number of active warp inst buffers at a given time
system.gpu.shader_cores0.lsq.warpInstBufActive::57            0      0.00%    100.00% # Histogram of number of active warp inst buffers at a given time
system.gpu.shader_cores0.lsq.warpInstBufActive::58            0      0.00%    100.00% # Histogram of number of active warp inst buffers at a given time
system.gpu.shader_cores0.lsq.warpInstBufActive::59            0      0.00%    100.00% # Histogram of number of active warp inst buffers at a given time
system.gpu.shader_cores0.lsq.warpInstBufActive::60            0      0.00%    100.00% # Histogram of number of active warp inst buffers at a given time
system.gpu.shader_cores0.lsq.warpInstBufActive::61            0      0.00%    100.00% # Histogram of number of active warp inst buffers at a given time
system.gpu.shader_cores0.lsq.warpInstBufActive::62            0      0.00%    100.00% # Histogram of number of active warp inst buffers at a given time
system.gpu.shader_cores0.lsq.warpInstBufActive::63            0      0.00%    100.00% # Histogram of number of active warp inst buffers at a given time
system.gpu.shader_cores0.lsq.warpInstBufActive::64            0      0.00%    100.00% # Histogram of number of active warp inst buffers at a given time
system.gpu.shader_cores0.lsq.warpInstBufActive::total      8736143                       # Histogram of number of active warp inst buffers at a given time
system.gpu.shader_cores0.lsq.cacheAccesses     0.002401                       # Average number of concurrent outstanding cache accesses
system.gpu.shader_cores0.lsq.writebackBlockedCycles            8                       # Number of cycles blocked for core writeback stage
system.gpu.shader_cores0.lsq.mshrHitQueued          235                       # Number of hits on blocked lines in MSHRs
system.gpu.shader_cores0.lsq.mshrsFullCycles            0                       # Number of cycles stalled waiting for an MSHR
system.gpu.shader_cores0.lsq.mshrsFullCount            0                       # Number of times MSHRs filled
system.gpu.shader_cores0.lsq.warpCoalescedAccesses::samples          416                       # Number of coalesced accesses per warp instruction
system.gpu.shader_cores0.lsq.warpCoalescedAccesses::mean     1.769231                       # Number of coalesced accesses per warp instruction
system.gpu.shader_cores0.lsq.warpCoalescedAccesses::gmean     1.608176                       # Number of coalesced accesses per warp instruction
system.gpu.shader_cores0.lsq.warpCoalescedAccesses::stdev     0.763388                       # Number of coalesced accesses per warp instruction
system.gpu.shader_cores0.lsq.warpCoalescedAccesses::0            0      0.00%      0.00% # Number of coalesced accesses per warp instruction
system.gpu.shader_cores0.lsq.warpCoalescedAccesses::1          180     43.27%     43.27% # Number of coalesced accesses per warp instruction
system.gpu.shader_cores0.lsq.warpCoalescedAccesses::2          152     36.54%     79.81% # Number of coalesced accesses per warp instruction
system.gpu.shader_cores0.lsq.warpCoalescedAccesses::3           84     20.19%    100.00% # Number of coalesced accesses per warp instruction
system.gpu.shader_cores0.lsq.warpCoalescedAccesses::4            0      0.00%    100.00% # Number of coalesced accesses per warp instruction
system.gpu.shader_cores0.lsq.warpCoalescedAccesses::5            0      0.00%    100.00% # Number of coalesced accesses per warp instruction
system.gpu.shader_cores0.lsq.warpCoalescedAccesses::6            0      0.00%    100.00% # Number of coalesced accesses per warp instruction
system.gpu.shader_cores0.lsq.warpCoalescedAccesses::7            0      0.00%    100.00% # Number of coalesced accesses per warp instruction
system.gpu.shader_cores0.lsq.warpCoalescedAccesses::8            0      0.00%    100.00% # Number of coalesced accesses per warp instruction
system.gpu.shader_cores0.lsq.warpCoalescedAccesses::9            0      0.00%    100.00% # Number of coalesced accesses per warp instruction
system.gpu.shader_cores0.lsq.warpCoalescedAccesses::10            0      0.00%    100.00% # Number of coalesced accesses per warp instruction
system.gpu.shader_cores0.lsq.warpCoalescedAccesses::11            0      0.00%    100.00% # Number of coalesced accesses per warp instruction
system.gpu.shader_cores0.lsq.warpCoalescedAccesses::12            0      0.00%    100.00% # Number of coalesced accesses per warp instruction
system.gpu.shader_cores0.lsq.warpCoalescedAccesses::13            0      0.00%    100.00% # Number of coalesced accesses per warp instruction
system.gpu.shader_cores0.lsq.warpCoalescedAccesses::14            0      0.00%    100.00% # Number of coalesced accesses per warp instruction
system.gpu.shader_cores0.lsq.warpCoalescedAccesses::15            0      0.00%    100.00% # Number of coalesced accesses per warp instruction
system.gpu.shader_cores0.lsq.warpCoalescedAccesses::16            0      0.00%    100.00% # Number of coalesced accesses per warp instruction
system.gpu.shader_cores0.lsq.warpCoalescedAccesses::17            0      0.00%    100.00% # Number of coalesced accesses per warp instruction
system.gpu.shader_cores0.lsq.warpCoalescedAccesses::18            0      0.00%    100.00% # Number of coalesced accesses per warp instruction
system.gpu.shader_cores0.lsq.warpCoalescedAccesses::19            0      0.00%    100.00% # Number of coalesced accesses per warp instruction
system.gpu.shader_cores0.lsq.warpCoalescedAccesses::20            0      0.00%    100.00% # Number of coalesced accesses per warp instruction
system.gpu.shader_cores0.lsq.warpCoalescedAccesses::21            0      0.00%    100.00% # Number of coalesced accesses per warp instruction
system.gpu.shader_cores0.lsq.warpCoalescedAccesses::22            0      0.00%    100.00% # Number of coalesced accesses per warp instruction
system.gpu.shader_cores0.lsq.warpCoalescedAccesses::23            0      0.00%    100.00% # Number of coalesced accesses per warp instruction
system.gpu.shader_cores0.lsq.warpCoalescedAccesses::24            0      0.00%    100.00% # Number of coalesced accesses per warp instruction
system.gpu.shader_cores0.lsq.warpCoalescedAccesses::25            0      0.00%    100.00% # Number of coalesced accesses per warp instruction
system.gpu.shader_cores0.lsq.warpCoalescedAccesses::26            0      0.00%    100.00% # Number of coalesced accesses per warp instruction
system.gpu.shader_cores0.lsq.warpCoalescedAccesses::27            0      0.00%    100.00% # Number of coalesced accesses per warp instruction
system.gpu.shader_cores0.lsq.warpCoalescedAccesses::28            0      0.00%    100.00% # Number of coalesced accesses per warp instruction
system.gpu.shader_cores0.lsq.warpCoalescedAccesses::29            0      0.00%    100.00% # Number of coalesced accesses per warp instruction
system.gpu.shader_cores0.lsq.warpCoalescedAccesses::30            0      0.00%    100.00% # Number of coalesced accesses per warp instruction
system.gpu.shader_cores0.lsq.warpCoalescedAccesses::31            0      0.00%    100.00% # Number of coalesced accesses per warp instruction
system.gpu.shader_cores0.lsq.warpCoalescedAccesses::32            0      0.00%    100.00% # Number of coalesced accesses per warp instruction
system.gpu.shader_cores0.lsq.warpCoalescedAccesses::total          416                       # Number of coalesced accesses per warp instruction
system.gpu.shader_cores0.lsq.warpLatencyRead::samples          288                       # Latency in cycles for whole warp to finish the read
system.gpu.shader_cores0.lsq.warpLatencyRead::mean   247.722222                       # Latency in cycles for whole warp to finish the read
system.gpu.shader_cores0.lsq.warpLatencyRead::gmean   103.983316                       # Latency in cycles for whole warp to finish the read
system.gpu.shader_cores0.lsq.warpLatencyRead::stdev   261.784693                       # Latency in cycles for whole warp to finish the read
system.gpu.shader_cores0.lsq.warpLatencyRead::0-63          112     38.89%     38.89% # Latency in cycles for whole warp to finish the read
system.gpu.shader_cores0.lsq.warpLatencyRead::64-127           50     17.36%     56.25% # Latency in cycles for whole warp to finish the read
system.gpu.shader_cores0.lsq.warpLatencyRead::128-191            8      2.78%     59.03% # Latency in cycles for whole warp to finish the read
system.gpu.shader_cores0.lsq.warpLatencyRead::192-255            5      1.74%     60.76% # Latency in cycles for whole warp to finish the read
system.gpu.shader_cores0.lsq.warpLatencyRead::256-319           12      4.17%     64.93% # Latency in cycles for whole warp to finish the read
system.gpu.shader_cores0.lsq.warpLatencyRead::320-383           10      3.47%     68.40% # Latency in cycles for whole warp to finish the read
system.gpu.shader_cores0.lsq.warpLatencyRead::384-447            9      3.12%     71.53% # Latency in cycles for whole warp to finish the read
system.gpu.shader_cores0.lsq.warpLatencyRead::448-511            9      3.12%     74.65% # Latency in cycles for whole warp to finish the read
system.gpu.shader_cores0.lsq.warpLatencyRead::512-575           16      5.56%     80.21% # Latency in cycles for whole warp to finish the read
system.gpu.shader_cores0.lsq.warpLatencyRead::576-639           19      6.60%     86.81% # Latency in cycles for whole warp to finish the read
system.gpu.shader_cores0.lsq.warpLatencyRead::640-703           30     10.42%     97.22% # Latency in cycles for whole warp to finish the read
system.gpu.shader_cores0.lsq.warpLatencyRead::704-767            5      1.74%     98.96% # Latency in cycles for whole warp to finish the read
system.gpu.shader_cores0.lsq.warpLatencyRead::768-831            0      0.00%     98.96% # Latency in cycles for whole warp to finish the read
system.gpu.shader_cores0.lsq.warpLatencyRead::832-895            3      1.04%    100.00% # Latency in cycles for whole warp to finish the read
system.gpu.shader_cores0.lsq.warpLatencyRead::896-959            0      0.00%    100.00% # Latency in cycles for whole warp to finish the read
system.gpu.shader_cores0.lsq.warpLatencyRead::960-1023            0      0.00%    100.00% # Latency in cycles for whole warp to finish the read
system.gpu.shader_cores0.lsq.warpLatencyRead::total          288                       # Latency in cycles for whole warp to finish the read
system.gpu.shader_cores0.lsq.warpLatencyWrite::samples          128                       # Latency in cycles for whole warp to finish the write
system.gpu.shader_cores0.lsq.warpLatencyWrite::mean    25.289062                       # Latency in cycles for whole warp to finish the write
system.gpu.shader_cores0.lsq.warpLatencyWrite::gmean    21.177835                       # Latency in cycles for whole warp to finish the write
system.gpu.shader_cores0.lsq.warpLatencyWrite::stdev    16.968313                       # Latency in cycles for whole warp to finish the write
system.gpu.shader_cores0.lsq.warpLatencyWrite::0-7            0      0.00%      0.00% # Latency in cycles for whole warp to finish the write
system.gpu.shader_cores0.lsq.warpLatencyWrite::8-15           66     51.56%     51.56% # Latency in cycles for whole warp to finish the write
system.gpu.shader_cores0.lsq.warpLatencyWrite::16-23           17     13.28%     64.84% # Latency in cycles for whole warp to finish the write
system.gpu.shader_cores0.lsq.warpLatencyWrite::24-31           15     11.72%     76.56% # Latency in cycles for whole warp to finish the write
system.gpu.shader_cores0.lsq.warpLatencyWrite::32-39            7      5.47%     82.03% # Latency in cycles for whole warp to finish the write
system.gpu.shader_cores0.lsq.warpLatencyWrite::40-47            0      0.00%     82.03% # Latency in cycles for whole warp to finish the write
system.gpu.shader_cores0.lsq.warpLatencyWrite::48-55            7      5.47%     87.50% # Latency in cycles for whole warp to finish the write
system.gpu.shader_cores0.lsq.warpLatencyWrite::56-63           13     10.16%     97.66% # Latency in cycles for whole warp to finish the write
system.gpu.shader_cores0.lsq.warpLatencyWrite::64-71            3      2.34%    100.00% # Latency in cycles for whole warp to finish the write
system.gpu.shader_cores0.lsq.warpLatencyWrite::72-79            0      0.00%    100.00% # Latency in cycles for whole warp to finish the write
system.gpu.shader_cores0.lsq.warpLatencyWrite::80-87            0      0.00%    100.00% # Latency in cycles for whole warp to finish the write
system.gpu.shader_cores0.lsq.warpLatencyWrite::88-95            0      0.00%    100.00% # Latency in cycles for whole warp to finish the write
system.gpu.shader_cores0.lsq.warpLatencyWrite::96-103            0      0.00%    100.00% # Latency in cycles for whole warp to finish the write
system.gpu.shader_cores0.lsq.warpLatencyWrite::104-111            0      0.00%    100.00% # Latency in cycles for whole warp to finish the write
system.gpu.shader_cores0.lsq.warpLatencyWrite::112-119            0      0.00%    100.00% # Latency in cycles for whole warp to finish the write
system.gpu.shader_cores0.lsq.warpLatencyWrite::120-127            0      0.00%    100.00% # Latency in cycles for whole warp to finish the write
system.gpu.shader_cores0.lsq.warpLatencyWrite::total          128                       # Latency in cycles for whole warp to finish the write
system.gpu.shader_cores0.lsq.warpLatencyFence::samples          288                       # Latency in cycles for whole warp to finish the fence
system.gpu.shader_cores0.lsq.warpLatencyFence::mean     8.611111                       # Latency in cycles for whole warp to finish the fence
system.gpu.shader_cores0.lsq.warpLatencyFence::gmean     7.600846                       # Latency in cycles for whole warp to finish the fence
system.gpu.shader_cores0.lsq.warpLatencyFence::stdev     5.594436                       # Latency in cycles for whole warp to finish the fence
system.gpu.shader_cores0.lsq.warpLatencyFence::0-3            0      0.00%      0.00% # Latency in cycles for whole warp to finish the fence
system.gpu.shader_cores0.lsq.warpLatencyFence::4-7          216     75.00%     75.00% # Latency in cycles for whole warp to finish the fence
system.gpu.shader_cores0.lsq.warpLatencyFence::8-11            9      3.12%     78.12% # Latency in cycles for whole warp to finish the fence
system.gpu.shader_cores0.lsq.warpLatencyFence::12-15           43     14.93%     93.06% # Latency in cycles for whole warp to finish the fence
system.gpu.shader_cores0.lsq.warpLatencyFence::16-19            4      1.39%     94.44% # Latency in cycles for whole warp to finish the fence
system.gpu.shader_cores0.lsq.warpLatencyFence::20-23            3      1.04%     95.49% # Latency in cycles for whole warp to finish the fence
system.gpu.shader_cores0.lsq.warpLatencyFence::24-27            0      0.00%     95.49% # Latency in cycles for whole warp to finish the fence
system.gpu.shader_cores0.lsq.warpLatencyFence::28-31           11      3.82%     99.31% # Latency in cycles for whole warp to finish the fence
system.gpu.shader_cores0.lsq.warpLatencyFence::32-35            1      0.35%     99.65% # Latency in cycles for whole warp to finish the fence
system.gpu.shader_cores0.lsq.warpLatencyFence::36-39            1      0.35%    100.00% # Latency in cycles for whole warp to finish the fence
system.gpu.shader_cores0.lsq.warpLatencyFence::40-43            0      0.00%    100.00% # Latency in cycles for whole warp to finish the fence
system.gpu.shader_cores0.lsq.warpLatencyFence::44-47            0      0.00%    100.00% # Latency in cycles for whole warp to finish the fence
system.gpu.shader_cores0.lsq.warpLatencyFence::48-51            0      0.00%    100.00% # Latency in cycles for whole warp to finish the fence
system.gpu.shader_cores0.lsq.warpLatencyFence::52-55            0      0.00%    100.00% # Latency in cycles for whole warp to finish the fence
system.gpu.shader_cores0.lsq.warpLatencyFence::56-59            0      0.00%    100.00% # Latency in cycles for whole warp to finish the fence
system.gpu.shader_cores0.lsq.warpLatencyFence::60-63            0      0.00%    100.00% # Latency in cycles for whole warp to finish the fence
system.gpu.shader_cores0.lsq.warpLatencyFence::total          288                       # Latency in cycles for whole warp to finish the fence
system.gpu.shader_cores0.lsq.tlbMissLatency::samples            0                       # Latency in cycles for TLB miss
system.gpu.shader_cores0.lsq.tlbMissLatency::mean          nan                       # Latency in cycles for TLB miss
system.gpu.shader_cores0.lsq.tlbMissLatency::gmean          nan                       # Latency in cycles for TLB miss
system.gpu.shader_cores0.lsq.tlbMissLatency::stdev          nan                       # Latency in cycles for TLB miss
system.gpu.shader_cores0.lsq.tlbMissLatency::0            0                       # Latency in cycles for TLB miss
system.gpu.shader_cores0.lsq.tlbMissLatency::1            0                       # Latency in cycles for TLB miss
system.gpu.shader_cores0.lsq.tlbMissLatency::2            0                       # Latency in cycles for TLB miss
system.gpu.shader_cores0.lsq.tlbMissLatency::3            0                       # Latency in cycles for TLB miss
system.gpu.shader_cores0.lsq.tlbMissLatency::4            0                       # Latency in cycles for TLB miss
system.gpu.shader_cores0.lsq.tlbMissLatency::5            0                       # Latency in cycles for TLB miss
system.gpu.shader_cores0.lsq.tlbMissLatency::6            0                       # Latency in cycles for TLB miss
system.gpu.shader_cores0.lsq.tlbMissLatency::7            0                       # Latency in cycles for TLB miss
system.gpu.shader_cores0.lsq.tlbMissLatency::8            0                       # Latency in cycles for TLB miss
system.gpu.shader_cores0.lsq.tlbMissLatency::9            0                       # Latency in cycles for TLB miss
system.gpu.shader_cores0.lsq.tlbMissLatency::10            0                       # Latency in cycles for TLB miss
system.gpu.shader_cores0.lsq.tlbMissLatency::11            0                       # Latency in cycles for TLB miss
system.gpu.shader_cores0.lsq.tlbMissLatency::12            0                       # Latency in cycles for TLB miss
system.gpu.shader_cores0.lsq.tlbMissLatency::13            0                       # Latency in cycles for TLB miss
system.gpu.shader_cores0.lsq.tlbMissLatency::14            0                       # Latency in cycles for TLB miss
system.gpu.shader_cores0.lsq.tlbMissLatency::15            0                       # Latency in cycles for TLB miss
system.gpu.shader_cores0.lsq.tlbMissLatency::total            0                       # Latency in cycles for TLB miss
system.gpu.shader_cores1.itb.hits                   0                       # Number of hits in this TLB
system.gpu.shader_cores1.itb.misses                 0                       # Number of misses in this TLB
system.gpu.shader_cores1.itb.hitRate              nan                       # Hit rate for this TLB
system.gpu.shader_cores1.local_loads                0                       # Number of loads from local space
system.gpu.shader_cores1.local_stores               0                       # Number of stores to local space
system.gpu.shader_cores1.shared_loads            5056                       # Number of loads from shared space
system.gpu.shader_cores1.shared_stores           3072                       # Number of stores to shared space
system.gpu.shader_cores1.param_kernel_loads         7296                       # Number of loads from kernel parameter space
system.gpu.shader_cores1.param_local_loads            0                       # Number of loads from local parameter space
system.gpu.shader_cores1.param_local_stores            0                       # Number of stores to local parameter space
system.gpu.shader_cores1.const_loads                0                       # Number of loads from constant space
system.gpu.shader_cores1.tex_loads                  0                       # Number of loads from texture space
system.gpu.shader_cores1.global_loads            8336                       # Number of loads from global space
system.gpu.shader_cores1.global_stores           3168                       # Number of stores to global space
system.gpu.shader_cores1.surf_loads                 0                       # Number of loads from surface space
system.gpu.shader_cores1.generic_loads              0                       # Number of loads from generic spaces (global, shared, local)
system.gpu.shader_cores1.generic_stores             0                       # Number of stores to generic spaces (global, shared, local)
system.gpu.shader_cores1.inst_cache_requests           13                       # Number of instruction cache requests sent
system.gpu.shader_cores1.inst_cache_retries            0                       # Number of instruction cache retries
system.gpu.shader_cores1.inst_counts::0             0                       # Inst counts: 1: ALU, 2: MAD, 3: CTRL, 4: SFU, 5: MEM, 6: TEX, 7: NOP
system.gpu.shader_cores1.inst_counts::1        130432                       # Inst counts: 1: ALU, 2: MAD, 3: CTRL, 4: SFU, 5: MEM, 6: TEX, 7: NOP
system.gpu.shader_cores1.inst_counts::2          2080                       # Inst counts: 1: ALU, 2: MAD, 3: CTRL, 4: SFU, 5: MEM, 6: TEX, 7: NOP
system.gpu.shader_cores1.inst_counts::3         20400                       # Inst counts: 1: ALU, 2: MAD, 3: CTRL, 4: SFU, 5: MEM, 6: TEX, 7: NOP
system.gpu.shader_cores1.inst_counts::4          6144                       # Inst counts: 1: ALU, 2: MAD, 3: CTRL, 4: SFU, 5: MEM, 6: TEX, 7: NOP
system.gpu.shader_cores1.inst_counts::5         26928                       # Inst counts: 1: ALU, 2: MAD, 3: CTRL, 4: SFU, 5: MEM, 6: TEX, 7: NOP
system.gpu.shader_cores1.inst_counts::6             0                       # Inst counts: 1: ALU, 2: MAD, 3: CTRL, 4: SFU, 5: MEM, 6: TEX, 7: NOP
system.gpu.shader_cores1.inst_counts::7             0                       # Inst counts: 1: ALU, 2: MAD, 3: CTRL, 4: SFU, 5: MEM, 6: TEX, 7: NOP
system.gpu.shader_cores1.activeCycles            7300                       # Number of cycles this shader was executing a CTA
system.gpu.shader_cores1.notStalledCycles         4745                       # Number of cycles this shader was actually executing at least one instance
system.gpu.shader_cores1.instInstances         185984                       # Total instructions executed by all PEs in the core
system.gpu.shader_cores1.instPerCycle       25.477260                       # Instruction instances per cycle
system.gpu.shader_cores1.kernels_completed            2                       # Number of kernels completed
system.gpu.shader_cores1.lsq.data_tlb.hits            0                       # Number of hits in this TLB
system.gpu.shader_cores1.lsq.data_tlb.misses            0                       # Number of misses in this TLB
system.gpu.shader_cores1.lsq.data_tlb.hitRate          nan                       # Hit rate for this TLB
system.gpu.shader_cores1.lsq.warpInstBufActive::samples      9136761                       # Histogram of number of active warp inst buffers at a given time
system.gpu.shader_cores1.lsq.warpInstBufActive::mean    12.890564                       # Histogram of number of active warp inst buffers at a given time
system.gpu.shader_cores1.lsq.warpInstBufActive::gmean          nan                       # Histogram of number of active warp inst buffers at a given time
system.gpu.shader_cores1.lsq.warpInstBufActive::stdev    13.105041                       # Histogram of number of active warp inst buffers at a given time
system.gpu.shader_cores1.lsq.warpInstBufActive::0      2583529     28.28%     28.28% # Histogram of number of active warp inst buffers at a given time
system.gpu.shader_cores1.lsq.warpInstBufActive::1       978027     10.70%     38.98% # Histogram of number of active warp inst buffers at a given time
system.gpu.shader_cores1.lsq.warpInstBufActive::2       481525      5.27%     44.25% # Histogram of number of active warp inst buffers at a given time
system.gpu.shader_cores1.lsq.warpInstBufActive::3       132945      1.46%     45.71% # Histogram of number of active warp inst buffers at a given time
system.gpu.shader_cores1.lsq.warpInstBufActive::4        98844      1.08%     46.79% # Histogram of number of active warp inst buffers at a given time
system.gpu.shader_cores1.lsq.warpInstBufActive::5        91899      1.01%     47.79% # Histogram of number of active warp inst buffers at a given time
[...]
system.ruby.Directory.miss_mach_latency_hist::total         5191                      
system.ruby.Directory.miss_latency_hist.issue_to_initial_request::bucket_size            1                      
system.ruby.Directory.miss_latency_hist.issue_to_initial_request::max_bucket            9                      
system.ruby.Directory.miss_latency_hist.issue_to_initial_request::samples            1                      
system.ruby.Directory.miss_latency_hist.issue_to_initial_request::stdev          nan                      
system.ruby.Directory.miss_latency_hist.issue_to_initial_request |           1    100.00%    100.00% |           0      0.00%    100.00% |           0      0.00%    100.00% |           0      0.00%    100.00% |           0      0.00%    100.00% |           0      0.00%    100.00% |           0      0.00%    100.00% |           0      0.00%    100.00% |           0      0.00%    100.00% |           0      0.00%    100.00%
system.ruby.Directory.miss_latency_hist.issue_to_initial_request::total            1                      
system.ruby.Directory.miss_latency_hist.initial_to_forward::bucket_size            1                      
system.ruby.Directory.miss_latency_hist.initial_to_forward::max_bucket            9                      
system.ruby.Directory.miss_latency_hist.initial_to_forward::samples            1                      
system.ruby.Directory.miss_latency_hist.initial_to_forward::stdev          nan                      
system.ruby.Directory.miss_latency_hist.initial_to_forward |           1    100.00%    100.00% |           0      0.00%    100.00% |           0      0.00%    100.00% |           0      0.00%    100.00% |           0      0.00%    100.00% |           0      0.00%    100.00% |           0      0.00%    100.00% |           0      0.00%    100.00% |           0      0.00%    100.00% |           0      0.00%    100.00%
system.ruby.Directory.miss_latency_hist.initial_to_forward::total            1                      
system.ruby.Directory.miss_latency_hist.forward_to_first_response::bucket_size            1                      
system.ruby.Directory.miss_latency_hist.forward_to_first_response::max_bucket            9                      
system.ruby.Directory.miss_latency_hist.forward_to_first_response::samples            1                      
system.ruby.Directory.miss_latency_hist.forward_to_first_response::stdev          nan                      
system.ruby.Directory.miss_latency_hist.forward_to_first_response |           1    100.00%    100.00% |           0      0.00%    100.00% |           0      0.00%    100.00% |           0      0.00%    100.00% |           0      0.00%    100.00% |           0      0.00%    100.00% |           0      0.00%    100.00% |           0      0.00%    100.00% |           0      0.00%    100.00% |           0      0.00%    100.00%
system.ruby.Directory.miss_latency_hist.forward_to_first_response::total            1                      
system.ruby.Directory.miss_latency_hist.first_response_to_completion::bucket_size           16                      
system.ruby.Directory.miss_latency_hist.first_response_to_completion::max_bucket          159                      
system.ruby.Directory.miss_latency_hist.first_response_to_completion::samples            1                      
system.ruby.Directory.miss_latency_hist.first_response_to_completion::mean          157                      
system.ruby.Directory.miss_latency_hist.first_response_to_completion::gmean   157.000000                      
system.ruby.Directory.miss_latency_hist.first_response_to_completion::stdev          nan                      
system.ruby.Directory.miss_latency_hist.first_response_to_completion |           0      0.00%      0.00% |           0      0.00%      0.00% |           0      0.00%      0.00% |           0      0.00%      0.00% |           0      0.00%      0.00% |           0      0.00%      0.00% |           0      0.00%      0.00% |           0      0.00%      0.00% |           0      0.00%      0.00% |           1    100.00%    100.00%
system.ruby.Directory.miss_latency_hist.first_response_to_completion::total            1                      
system.ruby.LD.L1Cache.miss_type_mach_latency_hist::bucket_size          256                      
system.ruby.LD.L1Cache.miss_type_mach_latency_hist::max_bucket         2559                      
system.ruby.LD.L1Cache.miss_type_mach_latency_hist::samples          793                      
system.ruby.LD.L1Cache.miss_type_mach_latency_hist::mean   404.475410                      
system.ruby.LD.L1Cache.miss_type_mach_latency_hist::gmean   167.270602                      
system.ruby.LD.L1Cache.miss_type_mach_latency_hist::stdev   500.661481                      
system.ruby.LD.L1Cache.miss_type_mach_latency_hist |         525     66.20%     66.20% |          25      3.15%     69.36% |          28      3.53%     72.89% |          42      5.30%     78.18% |         107     13.49%     91.68% |          60      7.57%     99.24% |           6      0.76%    100.00% |           0      0.00%    100.00% |           0      0.00%    100.00% |           0      0.00%    100.00%
system.ruby.LD.L1Cache.miss_type_mach_latency_hist::total          793                      
system.ruby.LD.Directory.miss_type_mach_latency_hist::bucket_size          256                      
system.ruby.LD.Directory.miss_type_mach_latency_hist::max_bucket         2559                      
system.ruby.LD.Directory.miss_type_mach_latency_hist::samples         2064                      
system.ruby.LD.Directory.miss_type_mach_latency_hist::mean   436.451550                      
system.ruby.LD.Directory.miss_type_mach_latency_hist::gmean   308.584632                      
system.ruby.LD.Directory.miss_type_mach_latency_hist::stdev   446.054810                      
system.ruby.LD.Directory.miss_type_mach_latency_hist |        1445     70.01%     70.01% |         123      5.96%     75.97% |         117      5.67%     81.64% |          84      4.07%     85.71% |         102      4.94%     90.65% |         108      5.23%     95.88% |          60      2.91%     98.79% |          15      0.73%     99.52% |           8      0.39%     99.90% |           2      0.10%    100.00%
system.ruby.LD.Directory.miss_type_mach_latency_hist::total         2064                      
system.ruby.ST.L1Cache.miss_type_mach_latency_hist::bucket_size          256                      
system.ruby.ST.L1Cache.miss_type_mach_latency_hist::max_bucket         2559                      
system.ruby.ST.L1Cache.miss_type_mach_latency_hist::samples          253                      
system.ruby.ST.L1Cache.miss_type_mach_latency_hist::mean   668.359684                      
system.ruby.ST.L1Cache.miss_type_mach_latency_hist::gmean   318.051431                      
system.ruby.ST.L1Cache.miss_type_mach_latency_hist::stdev   524.317115                      
system.ruby.ST.L1Cache.miss_type_mach_latency_hist |          99     39.13%     39.13% |           0      0.00%     39.13% |          18      7.11%     46.25% |          50     19.76%     66.01% |          60     23.72%     89.72% |          21      8.30%     98.02% |           5      1.98%    100.00% |           0      0.00%    100.00% |           0      0.00%    100.00% |           0      0.00%    100.00%
system.ruby.ST.L1Cache.miss_type_mach_latency_hist::total          253                      
system.ruby.ST.Directory.miss_type_mach_latency_hist::bucket_size          256                      
system.ruby.ST.Directory.miss_type_mach_latency_hist::max_bucket         2559                      
system.ruby.ST.Directory.miss_type_mach_latency_hist::samples         1449                      
system.ruby.ST.Directory.miss_type_mach_latency_hist::mean   544.969634                      
system.ruby.ST.Directory.miss_type_mach_latency_hist::gmean   331.399890                      
system.ruby.ST.Directory.miss_type_mach_latency_hist::stdev   590.008855                      
system.ruby.ST.Directory.miss_type_mach_latency_hist |        1048     72.33%     72.33% |          10      0.69%     73.02% |           3      0.21%     73.22% |           3      0.21%     73.43% |          58      4.00%     77.43% |         131      9.04%     86.47% |         185     12.77%     99.24% |          11      0.76%    100.00% |           0      0.00%    100.00% |           0      0.00%    100.00%
system.ruby.ST.Directory.miss_type_mach_latency_hist::total         1449                      
system.ruby.IFETCH.L1Cache.miss_type_mach_latency_hist::bucket_size           32                      
system.ruby.IFETCH.L1Cache.miss_type_mach_latency_hist::max_bucket          319                      
system.ruby.IFETCH.L1Cache.miss_type_mach_latency_hist::samples           36                      
system.ruby.IFETCH.L1Cache.miss_type_mach_latency_hist::mean   103.444444                      
system.ruby.IFETCH.L1Cache.miss_type_mach_latency_hist::gmean    87.345430                      
system.ruby.IFETCH.L1Cache.miss_type_mach_latency_hist::stdev    60.673574                      
system.ruby.IFETCH.L1Cache.miss_type_mach_latency_hist |           0      0.00%      0.00% |          15     41.67%     41.67% |           5     13.89%     55.56% |           4     11.11%     66.67% |           4     11.11%     77.78% |           3      8.33%     86.11% |           5     13.89%    100.00% |           0      0.00%    100.00% |           0      0.00%    100.00% |           0      0.00%    100.00%
system.ruby.IFETCH.L1Cache.miss_type_mach_latency_hist::total           36                      
system.ruby.IFETCH.Directory.miss_type_mach_latency_hist::bucket_size           32                      
system.ruby.IFETCH.Directory.miss_type_mach_latency_hist::max_bucket          319                      
system.ruby.IFETCH.Directory.miss_type_mach_latency_hist::samples         1674                      
system.ruby.IFETCH.Directory.miss_type_mach_latency_hist::mean   196.336320                      
system.ruby.IFETCH.Directory.miss_type_mach_latency_hist::gmean   195.035325                      
system.ruby.IFETCH.Directory.miss_type_mach_latency_hist::stdev    21.293773                      
system.ruby.IFETCH.Directory.miss_type_mach_latency_hist |           0      0.00%      0.00% |           0      0.00%      0.00% |           0      0.00%      0.00% |           0      0.00%      0.00% |         275     16.43%     16.43% |           1      0.06%     16.49% |        1380     82.44%     98.92% |           5      0.30%     99.22% |          13      0.78%    100.00% |           0      0.00%    100.00%
system.ruby.IFETCH.Directory.miss_type_mach_latency_hist::total         1674                      
system.ruby.RMW_Read.Directory.miss_type_mach_latency_hist::bucket_size           32                      
system.ruby.RMW_Read.Directory.miss_type_mach_latency_hist::max_bucket          319                      
system.ruby.RMW_Read.Directory.miss_type_mach_latency_hist::samples            4                      
system.ruby.RMW_Read.Directory.miss_type_mach_latency_hist::mean   163.250000                      
system.ruby.RMW_Read.Directory.miss_type_mach_latency_hist::gmean   161.784767                      
system.ruby.RMW_Read.Directory.miss_type_mach_latency_hist::stdev    26.512576                      
system.ruby.RMW_Read.Directory.miss_type_mach_latency_hist |           0      0.00%      0.00% |           0      0.00%      0.00% |           0      0.00%      0.00% |           0      0.00%      0.00% |           3     75.00%     75.00% |           0      0.00%     75.00% |           1     25.00%    100.00% |           0      0.00%    100.00% |           0      0.00%    100.00% |           0      0.00%    100.00%
system.ruby.RMW_Read.Directory.miss_type_mach_latency_hist::total            4                      
system.ruby.L1Cache_Controller.Load      |     1240460     99.82%     99.82% |         428      0.03%     99.85% |         421      0.03%     99.89% |         428      0.03%     99.92% |         416      0.03%     99.95% |           0      0.00%     99.95% |         577      0.05%    100.00%
system.ruby.L1Cache_Controller.Load::total      1242730                      
system.ruby.L1Cache_Controller.Ifetch    |     6665111    100.00%    100.00% |          12      0.00%    100.00% |          13      0.00%    100.00% |          12      0.00%    100.00% |          12      0.00%    100.00% |           0      0.00%    100.00% |           0      0.00%    100.00%
system.ruby.L1Cache_Controller.Ifetch::total      6665160                      
system.ruby.L1Cache_Controller.Store     |      845549     99.78%     99.78% |         308      0.04%     99.82% |         322      0.04%     99.86% |         308      0.04%     99.89% |         320      0.04%     99.93% |           0      0.00%     99.93% |         576      0.07%    100.00%
system.ruby.L1Cache_Controller.Store::total       847383                      
system.ruby.L1Cache_Controller.Data      |        4101     65.38%     65.38% |         247      3.94%     69.31% |         255      4.07%     73.38% |         260      4.14%     77.52% |         257      4.10%     81.62% |           0      0.00%     81.62% |        1153     18.38%    100.00%
system.ruby.L1Cache_Controller.Data::total         6273                      
system.ruby.L1Cache_Controller.Fwd_GETX  |         169     15.62%     15.62% |         217     20.06%     35.67% |         214     19.78%     55.45% |         225     20.79%     76.25% |         215     19.87%     96.12% |           0      0.00%     96.12% |          42      3.88%    100.00%
system.ruby.L1Cache_Controller.Fwd_GETX::total         1082                      
system.ruby.L1Cache_Controller.Replacement |        3554     75.76%     75.76% |           0      0.00%     75.76% |           0      0.00%     75.76% |           0      0.00%     75.76% |           0      0.00%     75.76% |           0      0.00%     75.76% |        1137     24.24%    100.00%
system.ruby.L1Cache_Controller.Replacement::total         4691                      
system.ruby.L1Cache_Controller.Writeback_Ack |        3433     75.80%     75.80% |           0      0.00%     75.80% |           0      0.00%     75.80% |           0      0.00%     75.80% |           0      0.00%     75.80% |           0      0.00%     75.80% |        1096     24.20%    100.00%
system.ruby.L1Cache_Controller.Writeback_Ack::total         4529                      
system.ruby.L1Cache_Controller.I.Load    |        1405     49.18%     49.18% |         213      7.46%     56.63% |         219      7.67%     64.30% |         224      7.84%     72.14% |         219      7.67%     79.80% |           0      0.00%     79.80% |         577     20.20%    100.00%
system.ruby.L1Cache_Controller.I.Load::total         2857                      
system.ruby.L1Cache_Controller.I.Ifetch  |        1661     97.13%     97.13% |          12      0.70%     97.84% |          13      0.76%     98.60% |          12      0.70%     99.30% |          12      0.70%    100.00% |           0      0.00%    100.00% |           0      0.00%    100.00%
system.ruby.L1Cache_Controller.I.Ifetch::total         1710                      
system.ruby.L1Cache_Controller.I.Store   |        1035     60.67%     60.67% |          22      1.29%     61.96% |          23      1.35%     63.31% |          24      1.41%     64.71% |          26      1.52%     66.24% |           0      0.00%     66.24% |         576     33.76%    100.00%
system.ruby.L1Cache_Controller.I.Store::total         1706                      
system.ruby.L1Cache_Controller.I.Replacement |         121     74.69%     74.69% |           0      0.00%     74.69% |           0      0.00%     74.69% |           0      0.00%     74.69% |           0      0.00%     74.69% |           0      0.00%     74.69% |          41     25.31%    100.00%
system.ruby.L1Cache_Controller.I.Replacement::total          162                      
system.ruby.L1Cache_Controller.M.Load    |     1239055     99.93%     99.93% |         215      0.02%     99.95% |         202      0.02%     99.97% |         204      0.02%     99.98% |         197      0.02%    100.00% |           0      0.00%    100.00% |           0      0.00%    100.00%
system.ruby.L1Cache_Controller.M.Load::total      1239873                      
system.ruby.L1Cache_Controller.M.Ifetch  |     6663450    100.00%    100.00% |           0      0.00%    100.00% |           0      0.00%    100.00% |           0      0.00%    100.00% |           0      0.00%    100.00% |           0      0.00%    100.00% |           0      0.00%    100.00%
system.ruby.L1Cache_Controller.M.Ifetch::total      6663450                      
system.ruby.L1Cache_Controller.M.Store   |      844514     99.86%     99.86% |         286      0.03%     99.90% |         299      0.04%     99.93% |         284      0.03%     99.97% |         294      0.03%    100.00% |           0      0.00%    100.00% |           0      0.00%    100.00%
system.ruby.L1Cache_Controller.M.Store::total       845677                      
system.ruby.L1Cache_Controller.M.Fwd_GETX |         169     15.62%     15.62% |         217     20.06%     35.67% |         214     19.78%     55.45% |         225     20.79%     76.25% |         215     19.87%     96.12% |           0      0.00%     96.12% |          42      3.88%    100.00%
system.ruby.L1Cache_Controller.M.Fwd_GETX::total         1082                      
system.ruby.L1Cache_Controller.M.Replacement |        3433     75.80%     75.80% |           0      0.00%     75.80% |           0      0.00%     75.80% |           0      0.00%     75.80% |           0      0.00%     75.80% |           0      0.00%     75.80% |        1096     24.20%    100.00%
system.ruby.L1Cache_Controller.M.Replacement::total         4529                      
system.ruby.L1Cache_Controller.MI.Writeback_Ack |        3433     75.80%     75.80% |           0      0.00%     75.80% |           0      0.00%     75.80% |           0      0.00%     75.80% |           0      0.00%     75.80% |           0      0.00%     75.80% |        1096     24.20%    100.00%
system.ruby.L1Cache_Controller.MI.Writeback_Ack::total         4529                      
system.ruby.L1Cache_Controller.IS.Data   |        3066     67.13%     67.13% |         225      4.93%     72.06% |         232      5.08%     77.14% |         236      5.17%     82.31% |         231      5.06%     87.37% |           0      0.00%     87.37% |         577     12.63%    100.00%
system.ruby.L1Cache_Controller.IS.Data::total         4567                      
system.ruby.L1Cache_Controller.IM.Data   |        1035     60.67%     60.67% |          22      1.29%     61.96% |          23      1.35%     63.31% |          24      1.41%     64.71% |          26      1.52%     66.24% |           0      0.00%     66.24% |         576     33.76%    100.00%
system.ruby.L1Cache_Controller.IM.Data::total         1706                      
system.ruby.Directory_Controller.GETX            8966      0.00%      0.00%
system.ruby.Directory_Controller.PUTX            4529      0.00%      0.00%
system.ruby.Directory_Controller.Memory_Data         5191      0.00%      0.00%
system.ruby.Directory_Controller.Memory_Ack         4529      0.00%      0.00%
system.ruby.Directory_Controller.I.GETX          5191      0.00%      0.00%
system.ruby.Directory_Controller.M.GETX          1082      0.00%      0.00%
system.ruby.Directory_Controller.M.PUTX          4529      0.00%      0.00%
system.ruby.Directory_Controller.IM.GETX         2693      0.00%      0.00%
system.ruby.Directory_Controller.IM.Memory_Data         5191      0.00%      0.00%
system.ruby.Directory_Controller.MI.Memory_Ack         4529      0.00%      0.00%

---------- End Simulation Statistics   ----------
