
---------- Begin Simulation Statistics ----------
sim_seconds                                  0.009209                       # Number of seconds simulated
sim_ticks                                  9209000000                       # Number of ticks simulated
final_tick                                 9209000000                       # Number of ticks from beginning of simulation (restored from checkpoints and never reset)
sim_freq                                 1000000000000                       # Frequency of simulated ticks
host_inst_rate                                 255382                       # Simulator instruction rate (inst/s)
host_op_rate                                   487897                       # Simulator op (including micro ops) rate (op/s)
host_tick_rate                              474111624                       # Simulator tick rate (ticks/s)
host_mem_usage                                4528424                       # Number of bytes of host memory used
host_seconds                                    19.42                       # Real time elapsed on the host
sim_insts                                     4960450                       # Number of instructions simulated
sim_ops                                       9476756                       # Number of ops (including micro ops) simulated
system.voltage_domain.voltage                       1                       # Voltage in Volts
system.clk_domain.clock                          1000                       # Clock period in ticks
system.mem_ctrls.clk_domain.clock                2500                       # Clock period in ticks
system.mem_ctrls.bytes_read::ruby.dir_cntrl0       682752                       # Number of bytes read from this memory
system.mem_ctrls.bytes_read::total             682752                       # Number of bytes read from this memory
system.mem_ctrls.bytes_written::ruby.dir_cntrl0       598016                       # Number of bytes written to this memory
system.mem_ctrls.bytes_written::total          598016                       # Number of bytes written to this memory
system.mem_ctrls.num_reads::ruby.dir_cntrl0         5334                       # Number of read requests responded to by this memory
system.mem_ctrls.num_reads::total                5334                       # Number of read requests responded to by this memory
system.mem_ctrls.num_writes::ruby.dir_cntrl0         4672                       # Number of write requests responded to by this memory
system.mem_ctrls.num_writes::total               4672                       # Number of write requests responded to by this memory
system.mem_ctrls.bw_read::ruby.dir_cntrl0     74139646                       # Total read bandwidth from this memory (bytes/s)
system.mem_ctrls.bw_read::total              74139646                       # Total read bandwidth from this memory (bytes/s)
system.mem_ctrls.bw_write::ruby.dir_cntrl0     64938213                       # Write bandwidth from this memory (bytes/s)
system.mem_ctrls.bw_write::total             64938213                       # Write bandwidth from this memory (bytes/s)
system.mem_ctrls.bw_total::ruby.dir_cntrl0    139077859                       # Total bandwidth to/from this memory (bytes/s)
system.mem_ctrls.bw_total::total            139077859                       # Total bandwidth to/from this memory (bytes/s)
system.mem_ctrls.memReq                         10006                       # Total number of memory requests
system.mem_ctrls.memRead                         5334                       # Number of memory reads
system.mem_ctrls.memWrite                        4672                       # Number of memory writes
system.mem_ctrls.memRefresh                     28781                       # Number of memory refreshes
system.mem_ctrls.memWaitCycles                  75883                       # Delay stalled at the head of the bank queue
system.mem_ctrls.memInputQ                       9625                       # Delay in the input queue
system.mem_ctrls.memBankQ                       35399                       # Delay behind the head of the bank queue
system.mem_ctrls.totalStalls                   120907                       # Total number of stall cycles
system.mem_ctrls.stallsPerReq               12.083450                       # Expected number of stall cycles per request
system.mem_ctrls.memBankBusy                    43950                       # memory stalls due to busy bank
system.mem_ctrls.memBusBusy                     12073                       # memory stalls due to busy bus
system.mem_ctrls.memReadWriteBusy                2301                       # memory stalls due to read write turnaround
system.mem_ctrls.memDataBusBusy                  1682                       # memory stalls due to read read turnaround
system.mem_ctrls.memArbWait                      8695                       # memory stalls due to arbitration
system.mem_ctrls.memNotOld                       7182                       # memory stalls due to anti starvation
system.mem_ctrls.memBankCount            |         216      2.16%      2.16% |         207      2.07%      4.23% |         442      4.42%      8.64% |         222      2.22%     10.86% |         328      3.28%     14.14% |         176      1.76%     15.90% |         346      3.46%     19.36% |         343      3.43%     22.79% |         178      1.78%     24.57% |         552      5.52%     30.08% |         192      1.92%     32.00% |         162      1.62%     33.62% |         168      1.68%     35.30% |         178      1.78%     37.08% |         180      1.80%     38.88% |        1710     17.09%     55.97% |         230      2.30%     58.27% |         398      3.98%     62.24% |         187      1.87%     64.11% |         202      2.02%     66.13% |         175      1.75%     67.88% |         158      1.58%     69.46% |         190      1.90%     71.36% |         200      2.00%     73.36% |         252      2.52%     75.87% |         212      2.12%     77.99% |         198      1.98%     79.97% |         840      8.39%     88.37% |         570      5.70%     94.06% |         204      2.04%     96.10% |         196      1.96%     98.06% |         194      1.94%    100.00% # Number of accesses per bank
system.mem_ctrls.memBankCount::total            10006                       # Number of accesses per bank
system.ruby_clk_domain.clock                      500                       # Clock period in ticks
system.ruby.phys_mem.bytes_read::cpu.inst     53321896                       # Number of bytes read from this memory
system.ruby.phys_mem.bytes_read::cpu.data      7972207                       # Number of bytes read from this memory
system.ruby.phys_mem.bytes_read::gpu.ce         73052                       # Number of bytes read from this memory
system.ruby.phys_mem.bytes_read::gpu.shader_cores0.data        35072                       # Number of bytes read from this memory
system.ruby.phys_mem.bytes_read::gpu.shader_cores0.inst          288                       # Number of bytes read from this memory
system.ruby.phys_mem.bytes_read::gpu.shader_cores1.data        35456                       # Number of bytes read from this memory
system.ruby.phys_mem.bytes_read::gpu.shader_cores1.inst          312                       # Number of bytes read from this memory
system.ruby.phys_mem.bytes_read::gpu.shader_cores2.data        35072                       # Number of bytes read from this memory
system.ruby.phys_mem.bytes_read::gpu.shader_cores2.inst          288                       # Number of bytes read from this memory
system.ruby.phys_mem.bytes_read::gpu.shader_cores3.data        34816                       # Number of bytes read from this memory
system.ruby.phys_mem.bytes_read::gpu.shader_cores3.inst          288                       # Number of bytes read from this memory
system.ruby.phys_mem.bytes_read::total       61508747                       # Number of bytes read from this memory
system.ruby.phys_mem.bytes_inst_read::cpu.inst     53321896                       # Number of instructions bytes read from this memory
system.ruby.phys_mem.bytes_inst_read::gpu.shader_cores0.inst          288                       # Number of instructions bytes read from this memory
system.ruby.phys_mem.bytes_inst_read::gpu.shader_cores1.inst          312                       # Number of instructions bytes read from this memory
system.ruby.phys_mem.bytes_inst_read::gpu.shader_cores2.inst          288                       # Number of instructions bytes read from this memory
system.ruby.phys_mem.bytes_inst_read::gpu.shader_cores3.inst          288                       # Number of instructions bytes read from this memory
system.ruby.phys_mem.bytes_inst_read::total     53323072                       # Number of instructions bytes read from this memory
system.ruby.phys_mem.bytes_written::cpu.data      4969927                       # Number of bytes written to this memory
system.ruby.phys_mem.bytes_written::gpu.ce        73052                       # Number of bytes written to this memory
system.ruby.phys_mem.bytes_written::gpu.shader_cores0.data        12544                       # Number of bytes written to this memory
system.ruby.phys_mem.bytes_written::gpu.shader_cores1.data        12672                       # Number of bytes written to this memory
system.ruby.phys_mem.bytes_written::gpu.shader_cores2.data        12544                       # Number of bytes written to this memory
system.ruby.phys_mem.bytes_written::gpu.shader_cores3.data        12544                       # Number of bytes written to this memory
system.ruby.phys_mem.bytes_written::total      5093283                       # Number of bytes written to this memory
system.ruby.phys_mem.num_reads::cpu.inst      6665237                       # Number of read requests responded to by this memory
system.ruby.phys_mem.num_reads::cpu.data      1297872                       # Number of read requests responded to by this memory
system.ruby.phys_mem.num_reads::gpu.ce            577                       # Number of read requests responded to by this memory
system.ruby.phys_mem.num_reads::gpu.shader_cores0.data          428                       # Number of read requests responded to by this memory
system.ruby.phys_mem.num_reads::gpu.shader_cores0.inst           12                       # Number of read requests responded to by this memory
system.ruby.phys_mem.num_reads::gpu.shader_cores1.data          421                       # Number of read requests responded to by this memory
system.ruby.phys_mem.num_reads::gpu.shader_cores1.inst           13                       # Number of read requests responded to by this memory
system.ruby.phys_mem.num_reads::gpu.shader_cores2.data          428                       # Number of read requests responded to by this memory
system.ruby.phys_mem.num_reads::gpu.shader_cores2.inst           12                       # Number of read requests responded to by this memory
system.ruby.phys_mem.num_reads::gpu.shader_cores3.data          416                       # Number of read requests responded to by this memory
system.ruby.phys_mem.num_reads::gpu.shader_cores3.inst           12                       # Number of read requests responded to by this memory
system.ruby.phys_mem.num_reads::total         7965428                       # Number of read requests responded to by this memory
system.ruby.phys_mem.num_writes::cpu.data       788149                       # Number of write requests responded to by this memory
system.ruby.phys_mem.num_writes::gpu.ce           576                       # Number of write requests responded to by this memory
system.ruby.phys_mem.num_writes::gpu.shader_cores0.data          308                       # Number of write requests responded to by this memory
system.ruby.phys_mem.num_writes::gpu.shader_cores1.data          322                       # Number of write requests responded to by this memory
system.ruby.phys_mem.num_writes::gpu.shader_cores2.data          308                       # Number of write requests responded to by this memory
system.ruby.phys_mem.num_writes::gpu.shader_cores3.data          320                       # Number of write requests responded to by this memory
system.ruby.phys_mem.num_writes::total         789983                       # Number of write requests responded to by this memory
system.ruby.phys_mem.bw_read::cpu.inst     5790193941                       # Total read bandwidth from this memory (bytes/s)
system.ruby.phys_mem.bw_read::cpu.data      865697361                       # Total read bandwidth from this memory (bytes/s)
system.ruby.phys_mem.bw_read::gpu.ce          7932675                       # Total read bandwidth from this memory (bytes/s)
system.ruby.phys_mem.bw_read::gpu.shader_cores0.data      3808448                       # Total read bandwidth from this memory (bytes/s)
system.ruby.phys_mem.bw_read::gpu.shader_cores0.inst        31274                       # Total read bandwidth from this memory (bytes/s)
system.ruby.phys_mem.bw_read::gpu.shader_cores1.data      3850147                       # Total read bandwidth from this memory (bytes/s)
system.ruby.phys_mem.bw_read::gpu.shader_cores1.inst        33880                       # Total read bandwidth from this memory (bytes/s)
system.ruby.phys_mem.bw_read::gpu.shader_cores2.data      3808448                       # Total read bandwidth from this memory (bytes/s)
system.ruby.phys_mem.bw_read::gpu.shader_cores2.inst        31274                       # Total read bandwidth from this memory (bytes/s)
system.ruby.phys_mem.bw_read::gpu.shader_cores3.data      3780649                       # Total read bandwidth from this memory (bytes/s)
system.ruby.phys_mem.bw_read::gpu.shader_cores3.inst        31274                       # Total read bandwidth from this memory (bytes/s)
system.ruby.phys_mem.bw_read::total        6679199370                       # Total read bandwidth from this memory (bytes/s)
system.ruby.phys_mem.bw_inst_read::cpu.inst   5790193941                       # Instruction read bandwidth from this memory (bytes/s)
system.ruby.phys_mem.bw_inst_read::gpu.shader_cores0.inst        31274                       # Instruction read bandwidth from this memory (bytes/s)
system.ruby.phys_mem.bw_inst_read::gpu.shader_cores1.inst        33880                       # Instruction read bandwidth from this memory (bytes/s)
system.ruby.phys_mem.bw_inst_read::gpu.shader_cores2.inst        31274                       # Instruction read bandwidth from this memory (bytes/s)
system.ruby.phys_mem.bw_inst_read::gpu.shader_cores3.inst        31274                       # Instruction read bandwidth from this memory (bytes/s)
system.ruby.phys_mem.bw_inst_read::total   5790321642                       # Instruction read bandwidth from this memory (bytes/s)
system.ruby.phys_mem.bw_write::cpu.data     539681507                       # Write bandwidth from this memory (bytes/s)
system.ruby.phys_mem.bw_write::gpu.ce         7932675                       # Write bandwidth from this memory (bytes/s)
system.ruby.phys_mem.bw_write::gpu.shader_cores0.data      1362146                       # Write bandwidth from this memory (bytes/s)
system.ruby.phys_mem.bw_write::gpu.shader_cores1.data      1376045                       # Write bandwidth from this memory (bytes/s)
system.ruby.phys_mem.bw_write::gpu.shader_cores2.data      1362146                       # Write bandwidth from this memory (bytes/s)
system.ruby.phys_mem.bw_write::gpu.shader_cores3.data      1362146                       # Write bandwidth from this memory (bytes/s)
system.ruby.phys_mem.bw_write::total        553076664                       # Write bandwidth from this memory (bytes/s)
system.ruby.phys_mem.bw_total::cpu.inst    5790193941                       # Total bandwidth to/from this memory (bytes/s)
system.ruby.phys_mem.bw_total::cpu.data    1405378868                       # Total bandwidth to/from this memory (bytes/s)
system.ruby.phys_mem.bw_total::gpu.ce        15865349                       # Total bandwidth to/from this memory (bytes/s)
system.ruby.phys_mem.bw_total::gpu.shader_cores0.data      5170594                       # Total bandwidth to/from this memory (bytes/s)
system.ruby.phys_mem.bw_total::gpu.shader_cores0.inst        31274                       # Total bandwidth to/from this memory (bytes/s)
system.ruby.phys_mem.bw_total::gpu.shader_cores1.data      5226192                       # Total bandwidth to/from this memory (bytes/s)
system.ruby.phys_mem.bw_total::gpu.shader_cores1.inst        33880                       # Total bandwidth to/from this memory (bytes/s)
system.ruby.phys_mem.bw_total::gpu.shader_cores2.data      5170594                       # Total bandwidth to/from this memory (bytes/s)
system.ruby.phys_mem.bw_total::gpu.shader_cores2.inst        31274                       # Total bandwidth to/from this memory (bytes/s)
system.ruby.phys_mem.bw_total::gpu.shader_cores3.data      5142795                       # Total bandwidth to/from this memory (bytes/s)
system.ruby.phys_mem.bw_total::gpu.shader_cores3.inst        31274                       # Total bandwidth to/from this memory (bytes/s)
system.ruby.phys_mem.bw_total::total       7232276034                       # Total bandwidth to/from this memory (bytes/s)
system.cpu_voltage_domain.voltage                   1                       # Voltage in Volts
system.cpu_clk_domain.clock                       500                       # Clock period in ticks
system.cpu.apic_clk_domain.clock                 8000                       # Clock period in ticks
system.cpu.workload.num_syscalls                   44                       # Number of system calls
system.cpu.numCycles                         18418000                       # number of cpu cycles simulated
system.cpu.numWorkItemsStarted                      1                       # number of work items this cpu started
system.cpu.numWorkItemsCompleted                    1                       # number of work items this cpu completed
system.cpu.committedInsts                     4960450                       # Number of instructions committed
system.cpu.committedOps                       9476756                       # Number of ops (including micro ops) committed
system.cpu.num_int_alu_accesses               9329223                       # Number of integer alu accesses
system.cpu.num_fp_alu_accesses                 212669                       # Number of float alu accesses
system.cpu.num_func_calls                      196548                       # number of times a function call or return occured
system.cpu.num_conditional_control_insts       812674                       # number of instructions that are conditional controls
system.cpu.num_int_insts                      9329223                       # number of integer instructions
system.cpu.num_fp_insts                        212669                       # number of float instructions
system.cpu.num_int_register_reads            17876767                       # number of times the integer registers were read
system.cpu.num_int_register_writes            7459322                       # number of times the integer registers were written
system.cpu.num_fp_register_reads               283204                       # number of times the floating registers were read
system.cpu.num_fp_register_writes              145430                       # number of times the floating registers were written
system.cpu.num_cc_register_reads              5507388                       # number of times the CC registers were read
system.cpu.num_cc_register_writes             3245237                       # number of times the CC registers were written
system.cpu.num_mem_refs                       2086021                       # number of memory refs
system.cpu.num_load_insts                     1297872                       # Number of load instructions
system.cpu.num_store_insts                     788149                       # Number of store instructions
system.cpu.num_idle_cycles               84245.491991                       # Number of idle cycles
system.cpu.num_busy_cycles               18333754.508009                       # Number of busy cycles
system.cpu.not_idle_fraction                 0.995426                       # Percentage of non-idle cycles
system.cpu.idle_fraction                     0.004574                       # Percentage of idle cycles
system.cpu.Branches                           1088957                       # Number of branches fetched
system.cpu.op_class::No_OpClass                 35027      0.37%      0.37% # Class of executed instruction
system.cpu.op_class::IntAlu                   7203164     76.01%     76.38% # Class of executed instruction
system.cpu.op_class::IntMult                    20875      0.22%     76.60% # Class of executed instruction
system.cpu.op_class::IntDiv                       571      0.01%     76.60% # Class of executed instruction
system.cpu.op_class::FloatAdd                  131098      1.38%     77.99% # Class of executed instruction
system.cpu.op_class::FloatCmp                       0      0.00%     77.99% # Class of executed instruction
system.cpu.op_class::FloatCvt                       0      0.00%     77.99% # Class of executed instruction
system.cpu.op_class::FloatMult                      0      0.00%     77.99% # Class of executed instruction
system.cpu.op_class::FloatDiv                       0      0.00%     77.99% # Class of executed instruction
system.cpu.op_class::FloatSqrt                      0      0.00%     77.99% # Class of executed instruction
system.cpu.op_class::SimdAdd                        0      0.00%     77.99% # Class of executed instruction
system.cpu.op_class::SimdAddAcc                     0      0.00%     77.99% # Class of executed instruction
system.cpu.op_class::SimdAlu                        0      0.00%     77.99% # Class of executed instruction
system.cpu.op_class::SimdCmp                        0      0.00%     77.99% # Class of executed instruction
system.cpu.op_class::SimdCvt                        0      0.00%     77.99% # Class of executed instruction
system.cpu.op_class::SimdMisc                       0      0.00%     77.99% # Class of executed instruction
system.cpu.op_class::SimdMult                       0      0.00%     77.99% # Class of executed instruction
system.cpu.op_class::SimdMultAcc                    0      0.00%     77.99% # Class of executed instruction
system.cpu.op_class::SimdShift                      0      0.00%     77.99% # Class of executed instruction
system.cpu.op_class::SimdShiftAcc                   0      0.00%     77.99% # Class of executed instruction
system.cpu.op_class::SimdSqrt                       0      0.00%     77.99% # Class of executed instruction
system.cpu.op_class::SimdFloatAdd                   0      0.00%     77.99% # Class of executed instruction
system.cpu.op_class::SimdFloatAlu                   0      0.00%     77.99% # Class of executed instruction
system.cpu.op_class::SimdFloatCmp                   0      0.00%     77.99% # Class of executed instruction
system.cpu.op_class::SimdFloatCvt                   0      0.00%     77.99% # Class of executed instruction
system.cpu.op_class::SimdFloatDiv                   0      0.00%     77.99% # Class of executed instruction
system.cpu.op_class::SimdFloatMisc                  0      0.00%     77.99% # Class of executed instruction
system.cpu.op_class::SimdFloatMult                  0      0.00%     77.99% # Class of executed instruction
system.cpu.op_class::SimdFloatMultAcc               0      0.00%     77.99% # Class of executed instruction
system.cpu.op_class::SimdFloatSqrt                  0      0.00%     77.99% # Class of executed instruction
system.cpu.op_class::MemRead                  1297872     13.70%     91.68% # Class of executed instruction
system.cpu.op_class::MemWrite                  788149      8.32%    100.00% # Class of executed instruction
system.cpu.op_class::IprAccess                      0      0.00%    100.00% # Class of executed instruction
system.cpu.op_class::InstPrefetch                   0      0.00%    100.00% # Class of executed instruction
system.cpu.op_class::total                    9476756                       # Class of executed instruction
system.gpu.clk_domain.voltage_domain.voltage            1                       # Voltage in Volts
system.gpu.clk_domain.clock                      1429                       # Clock period in ticks
system.gpu.dram_wrapper.clk_domain.clock          541                       # Clock period in ticks
system.gpu.icnt_wrapper.clk_domain.clock         2858                       # Clock period in ticks
system.ruby.delayHist::bucket_size                 16                       # delay histogram for all message
system.ruby.delayHist::max_bucket                 159                       # delay histogram for all message
system.ruby.delayHist::samples                  12170                       # delay histogram for all message
system.ruby.delayHist::mean                  1.484306                       # delay histogram for all message
system.ruby.delayHist::stdev                 6.936344                       # delay histogram for all message
system.ruby.delayHist                    |       11693     96.08%     96.08% |         354      2.91%     98.99% |          81      0.67%     99.65% |          22      0.18%     99.84% |           6      0.05%     99.88% |           5      0.04%     99.93% |           2      0.02%     99.94% |           2      0.02%     99.96% |           3      0.02%     99.98% |           2      0.02%    100.00% # delay histogram for all message
system.ruby.delayHist::total                    12170                       # delay histogram for all message
system.ruby.outstanding_req_hist::bucket_size            8                      
system.ruby.outstanding_req_hist::max_bucket           79                      
system.ruby.outstanding_req_hist::samples      8755411                      
system.ruby.outstanding_req_hist::mean       1.009213                      
system.ruby.outstanding_req_hist::gmean      1.000952                      
system.ruby.outstanding_req_hist::stdev      0.680321                      
system.ruby.outstanding_req_hist         |     8753536     99.98%     99.98% |         244      0.00%     99.98% |         239      0.00%     99.98% |         266      0.00%     99.99% |         200      0.00%     99.99% |          37      0.00%     99.99% |          36      0.00%     99.99% |          47      0.00%     99.99% |         806      0.01%    100.00% |           0      0.00%    100.00%
system.ruby.outstanding_req_hist::total       8755411                      
system.ruby.latency_hist::bucket_size             256                      
system.ruby.latency_hist::max_bucket             2559                      
system.ruby.latency_hist::samples             8755411                      
system.ruby.latency_hist::mean               1.298324                      
system.ruby.latency_hist::gmean              1.004077                      
system.ruby.latency_hist::stdev             16.825990                      
system.ruby.latency_hist                 |     8753955     99.98%     99.98% |         150      0.00%     99.99% |         156      0.00%     99.99% |         165      0.00%     99.99% |         240      0.00%     99.99% |         386      0.00%    100.00% |         327      0.00%    100.00% |          21      0.00%    100.00% |          11      0.00%    100.00% |           0      0.00%    100.00%
system.ruby.latency_hist::total               8755411                      
system.ruby.hit_latency_hist::bucket_size            1                      
system.ruby.hit_latency_hist::max_bucket            9                      
system.ruby.hit_latency_hist::samples         8748995                      
system.ruby.hit_latency_hist::mean                  1                      
system.ruby.hit_latency_hist::gmean                 1                      
system.ruby.hit_latency_hist             |           0      0.00%      0.00% |     8748995    100.00%    100.00% |           0      0.00%    100.00% |           0      0.00%    100.00% |           0      0.00%    100.00% |           0      0.00%    100.00% |           0      0.00%    100.00% |           0      0.00%    100.00% |           0      0.00%    100.00% |           0      0.00%    100.00%
system.ruby.hit_latency_hist::total           8748995                      
system.ruby.miss_latency_hist::bucket_size          256                      
system.ruby.miss_latency_hist::max_bucket         2559                      
system.ruby.miss_latency_hist::samples           6416                      
system.ruby.miss_latency_hist::mean        408.099751                      
system.ruby.miss_latency_hist::gmean       257.886026                      
system.ruby.miss_latency_hist::stdev       469.860551                      
system.ruby.miss_latency_hist            |        4960     77.31%     77.31% |         150      2.34%     79.64% |         156      2.43%     82.08% |         165      2.57%     84.65% |         240      3.74%     88.39% |         386      6.02%     94.40% |         327      5.10%     99.50% |          21      0.33%     99.83% |          11      0.17%    100.00% |           0      0.00%    100.00%
system.ruby.miss_latency_hist::total             6416                      
system.ruby.L1Cache.incomplete_times             1082                      
system.ruby.Directory.incomplete_times           5333                      
system.gpu.shader_mmu.numPagefaults                 0                       # Number of Pagefaults
system.gpu.shader_mmu.numPagewalks                169                       # Number of Pagewalks
system.gpu.shader_mmu.totalRequests               169                       # Total number of requests
system.gpu.shader_mmu.retryFailures                 0                       # Times the retry walk after a pagefault failed
system.gpu.shader_mmu.l2hits                        0                       # Hits in the shared L2
system.gpu.shader_mmu.prefetchHits                  0                       # Number of prefetch hits
system.gpu.shader_mmu.numPrefetches                 0                       # Number of prefetchs
system.gpu.shader_mmu.prefetchFaults                0                       # Number of faults caused by prefetches
system.gpu.shader_mmu.pagefaultLatency::samples            0                       # Latency to complete the pagefault
system.gpu.shader_mmu.pagefaultLatency::mean          nan                       # Latency to complete the pagefault
system.gpu.shader_mmu.pagefaultLatency::gmean          nan                       # Latency to complete the pagefault
system.gpu.shader_mmu.pagefaultLatency::stdev          nan                       # Latency to complete the pagefault
system.gpu.shader_mmu.pagefaultLatency::0            0                       # Latency to complete the pagefault
system.gpu.shader_mmu.pagefaultLatency::1            0                       # Latency to complete the pagefault
system.gpu.shader_mmu.pagefaultLatency::2            0                       # Latency to complete the pagefault
system.gpu.shader_mmu.pagefaultLatency::3            0                       # Latency to complete the pagefault
system.gpu.shader_mmu.pagefaultLatency::4            0                       # Latency to complete the pagefault
system.gpu.shader_mmu.pagefaultLatency::5            0                       # Latency to complete the pagefault
system.gpu.shader_mmu.pagefaultLatency::6            0                       # Latency to complete the pagefault
system.gpu.shader_mmu.pagefaultLatency::7            0                       # Latency to complete the pagefault
system.gpu.shader_mmu.pagefaultLatency::8            0                       # Latency to complete the pagefault
system.gpu.shader_mmu.pagefaultLatency::9            0                       # Latency to complete the pagefault
system.gpu.shader_mmu.pagefaultLatency::10            0                       # Latency to complete the pagefault
system.gpu.shader_mmu.pagefaultLatency::11            0                       # Latency to complete the pagefault
system.gpu.shader_mmu.pagefaultLatency::12            0                       # Latency to complete the pagefault
system.gpu.shader_mmu.pagefaultLatency::13            0                       # Latency to complete the pagefault
system.gpu.shader_mmu.pagefaultLatency::14            0                       # Latency to complete the pagefault
system.gpu.shader_mmu.pagefaultLatency::15            0                       # Latency to complete the pagefault
system.gpu.shader_mmu.pagefaultLatency::16            0                       # Latency to complete the pagefault
system.gpu.shader_mmu.pagefaultLatency::17            0                       # Latency to complete the pagefault
system.gpu.shader_mmu.pagefaultLatency::18            0                       # Latency to complete the pagefault
system.gpu.shader_mmu.pagefaultLatency::19            0                       # Latency to complete the pagefault
system.gpu.shader_mmu.pagefaultLatency::20            0                       # Latency to complete the pagefault
system.gpu.shader_mmu.pagefaultLatency::21            0                       # Latency to complete the pagefault
system.gpu.shader_mmu.pagefaultLatency::22            0                       # Latency to complete the pagefault
system.gpu.shader_mmu.pagefaultLatency::23            0                       # Latency to complete the pagefault
system.gpu.shader_mmu.pagefaultLatency::24            0                       # Latency to complete the pagefault
system.gpu.shader_mmu.pagefaultLatency::25            0                       # Latency to complete the pagefault
system.gpu.shader_mmu.pagefaultLatency::26            0                       # Latency to complete the pagefault
system.gpu.shader_mmu.pagefaultLatency::27            0                       # Latency to complete the pagefault
system.gpu.shader_mmu.pagefaultLatency::28            0                       # Latency to complete the pagefault
system.gpu.shader_mmu.pagefaultLatency::29            0                       # Latency to complete the pagefault
system.gpu.shader_mmu.pagefaultLatency::30            0                       # Latency to complete the pagefault
system.gpu.shader_mmu.pagefaultLatency::31            0                       # Latency to complete the pagefault
system.gpu.shader_mmu.pagefaultLatency::total            0                       # Latency to complete the pagefault
system.gpu.shader_mmu.concurrentWalks::samples          169                       # Number of outstanding walks
system.gpu.shader_mmu.concurrentWalks::mean            0                       # Number of outstanding walks
system.gpu.shader_mmu.concurrentWalks::gmean            0                       # Number of outstanding walks
system.gpu.shader_mmu.concurrentWalks::stdev            0                       # Number of outstanding walks
system.gpu.shader_mmu.concurrentWalks::0          169    100.00%    100.00% # Number of outstanding walks
system.gpu.shader_mmu.concurrentWalks::1            0      0.00%    100.00% # Number of outstanding walks
system.gpu.shader_mmu.concurrentWalks::2            0      0.00%    100.00% # Number of outstanding walks
system.gpu.shader_mmu.concurrentWalks::3            0      0.00%    100.00% # Number of outstanding walks
system.gpu.shader_mmu.concurrentWalks::4            0      0.00%    100.00% # Number of outstanding walks
system.gpu.shader_mmu.concurrentWalks::5            0      0.00%    100.00% # Number of outstanding walks
system.gpu.shader_mmu.concurrentWalks::6            0      0.00%    100.00% # Number of outstanding walks
system.gpu.shader_mmu.concurrentWalks::7            0      0.00%    100.00% # Number of outstanding walks
system.gpu.shader_mmu.concurrentWalks::8            0      0.00%    100.00% # Number of outstanding walks
system.gpu.shader_mmu.concurrentWalks::9            0      0.00%    100.00% # Number of outstanding walks
system.gpu.shader_mmu.concurrentWalks::10            0      0.00%    100.00% # Number of outstanding walks
system.gpu.shader_mmu.concurrentWalks::11            0      0.00%    100.00% # Number of outstanding walks
system.gpu.shader_mmu.concurrentWalks::12            0      0.00%    100.00% # Number of outstanding walks
system.gpu.shader_mmu.concurrentWalks::13            0      0.00%    100.00% # Number of outstanding walks
system.gpu.shader_mmu.concurrentWalks::14            0      0.00%    100.00% # Number of outstanding walks
system.gpu.shader_mmu.concurrentWalks::15            0      0.00%    100.00% # Number of outstanding walks
system.gpu.shader_mmu.concurrentWalks::total          169                       # Number of outstanding walks
system.gpu.shader_mmu.pagewalkLatency::samples          169                       # Latency to complete the pagewalk
system.gpu.shader_mmu.pagewalkLatency::mean            0                       # Latency to complete the pagewalk
system.gpu.shader_mmu.pagewalkLatency::gmean            0                       # Latency to complete the pagewalk
system.gpu.shader_mmu.pagewalkLatency::stdev            0                       # Latency to complete the pagewalk
system.gpu.shader_mmu.pagewalkLatency::0          169    100.00%    100.00% # Latency to complete the pagewalk
system.gpu.shader_mmu.pagewalkLatency::1            0      0.00%    100.00% # Latency to complete the pagewalk
system.gpu.shader_mmu.pagewalkLatency::2            0      0.00%    100.00% # Latency to complete the pagewalk
system.gpu.shader_mmu.pagewalkLatency::3            0      0.00%    100.00% # Latency to complete the pagewalk
system.gpu.shader_mmu.pagewalkLatency::4            0      0.00%    100.00% # Latency to complete the pagewalk
system.gpu.shader_mmu.pagewalkLatency::5            0      0.00%    100.00% # Latency to complete the pagewalk
system.gpu.shader_mmu.pagewalkLatency::6            0      0.00%    100.00% # Latency to complete the pagewalk
system.gpu.shader_mmu.pagewalkLatency::7            0      0.00%    100.00% # Latency to complete the pagewalk
system.gpu.shader_mmu.pagewalkLatency::8            0      0.00%    100.00% # Latency to complete the pagewalk
system.gpu.shader_mmu.pagewalkLatency::9            0      0.00%    100.00% # Latency to complete the pagewalk
system.gpu.shader_mmu.pagewalkLatency::10            0      0.00%    100.00% # Latency to complete the pagewalk
system.gpu.shader_mmu.pagewalkLatency::11            0      0.00%    100.00% # Latency to complete the pagewalk
system.gpu.shader_mmu.pagewalkLatency::12            0      0.00%    100.00% # Latency to complete the pagewalk
system.gpu.shader_mmu.pagewalkLatency::13            0      0.00%    100.00% # Latency to complete the pagewalk
system.gpu.shader_mmu.pagewalkLatency::14            0      0.00%    100.00% # Latency to complete the pagewalk
system.gpu.shader_mmu.pagewalkLatency::15            0      0.00%    100.00% # Latency to complete the pagewalk
system.gpu.shader_mmu.pagewalkLatency::16            0      0.00%    100.00% # Latency to complete the pagewalk
system.gpu.shader_mmu.pagewalkLatency::17            0      0.00%    100.00% # Latency to complete the pagewalk
system.gpu.shader_mmu.pagewalkLatency::18            0      0.00%    100.00% # Latency to complete the pagewalk
system.gpu.shader_mmu.pagewalkLatency::19            0      0.00%    100.00% # Latency to complete the pagewalk
system.gpu.shader_mmu.pagewalkLatency::20            0      0.00%    100.00% # Latency to complete the pagewalk
system.gpu.shader_mmu.pagewalkLatency::21            0      0.00%    100.00% # Latency to complete the pagewalk
system.gpu.shader_mmu.pagewalkLatency::22            0      0.00%    100.00% # Latency to complete the pagewalk
system.gpu.shader_mmu.pagewalkLatency::23            0      0.00%    100.00% # Latency to complete the pagewalk
system.gpu.shader_mmu.pagewalkLatency::24            0      0.00%    100.00% # Latency to complete the pagewalk
system.gpu.shader_mmu.pagewalkLatency::25            0      0.00%    100.00% # Latency to complete the pagewalk
system.gpu.shader_mmu.pagewalkLatency::26            0      0.00%    100.00% # Latency to complete the pagewalk
system.gpu.shader_mmu.pagewalkLatency::27            0      0.00%    100.00% # Latency to complete the pagewalk
system.gpu.shader_mmu.pagewalkLatency::28            0      0.00%    100.00% # Latency to complete the pagewalk
system.gpu.shader_mmu.pagewalkLatency::29            0      0.00%    100.00% # Latency to complete the pagewalk
system.gpu.shader_mmu.pagewalkLatency::30            0      0.00%    100.00% # Latency to complete the pagewalk
system.gpu.shader_mmu.pagewalkLatency::31            0      0.00%    100.00% # Latency to complete the pagewalk
system.gpu.shader_mmu.pagewalkLatency::total          169                       # Latency to complete the pagewalk
system.gpu.kernels_started                          2                       # Number of kernels started
system.gpu.kernels_completed                        2                       # Number of kernels completed
system.gpu.ce.device_dtb.hits                       0                       # Number of hits in this TLB
system.gpu.ce.device_dtb.misses                     0                       # Number of misses in this TLB
system.gpu.ce.device_dtb.hitRate                  nan                       # Hit rate for this TLB
system.gpu.ce.host_dtb.hits                       409                       # Number of hits in this TLB
system.gpu.ce.host_dtb.misses                     169                       # Number of misses in this TLB
system.gpu.ce.host_dtb.hitRate               0.707612                       # Hit rate for this TLB
system.gpu.shader_cores0.itb.hits                   0                       # Number of hits in this TLB
system.gpu.shader_cores0.itb.misses                 0                       # Number of misses in this TLB
system.gpu.shader_cores0.itb.hitRate              nan                       # Hit rate for this TLB
system.gpu.shader_cores0.local_loads                0                       # Number of loads from local space
system.gpu.shader_cores0.local_stores               0                       # Number of stores to local space
system.gpu.shader_cores0.shared_loads            5056                       # Number of loads from shared space
system.gpu.shader_cores0.shared_stores           3072                       # Number of stores to shared space
system.gpu.shader_cores0.param_kernel_loads         7296                       # Number of loads from kernel parameter space
system.gpu.shader_cores0.param_local_loads            0                       # Number of loads from local parameter space
system.gpu.shader_cores0.param_local_stores            0                       # Number of stores to local parameter space
system.gpu.shader_cores0.const_loads                0                       # Number of loads from constant space
system.gpu.shader_cores0.tex_loads                  0                       # Number of loads from texture space
system.gpu.shader_cores0.global_loads            8256                       # Number of loads from global space
system.gpu.shader_cores0.global_stores           3136                       # Number of stores to global space
system.gpu.shader_cores0.surf_loads                 0                       # Number of loads from surface space
system.gpu.shader_cores0.generic_loads              0                       # Number of loads from generic spaces (global, shared, local)
system.gpu.shader_cores0.generic_stores             0                       # Number of stores to generic spaces (global, shared, local)
system.gpu.shader_cores0.inst_cache_requests           12                       # Number of instruction cache requests sent
system.gpu.shader_cores0.inst_cache_retries            0                       # Number of instruction cache retries
system.gpu.shader_cores0.inst_counts::0             0                       # Inst counts: 1: ALU, 2: MAD, 3: CTRL, 4: SFU, 5: MEM, 6: TEX, 7: NOP
system.gpu.shader_cores0.inst_counts::1        130176                       # Inst counts: 1: ALU, 2: MAD, 3: CTRL, 4: SFU, 5: MEM, 6: TEX, 7: NOP
system.gpu.shader_cores0.inst_counts::2          2048                       # Inst counts: 1: ALU, 2: MAD, 3: CTRL, 4: SFU, 5: MEM, 6: TEX, 7: NOP
system.gpu.shader_cores0.inst_counts::3         20416                       # Inst counts: 1: ALU, 2: MAD, 3: CTRL, 4: SFU, 5: MEM, 6: TEX, 7: NOP
system.gpu.shader_cores0.inst_counts::4          6144                       # Inst counts: 1: ALU, 2: MAD, 3: CTRL, 4: SFU, 5: MEM, 6: TEX, 7: NOP
system.gpu.shader_cores0.inst_counts::5         26816                       # Inst counts: 1: ALU, 2: MAD, 3: CTRL, 4: SFU, 5: MEM, 6: TEX, 7: NOP
system.gpu.shader_cores0.inst_counts::6             0                       # Inst counts: 1: ALU, 2: MAD, 3: CTRL, 4: SFU, 5: MEM, 6: TEX, 7: NOP
system.gpu.shader_cores0.inst_counts::7             0                       # Inst counts: 1: ALU, 2: MAD, 3: CTRL, 4: SFU, 5: MEM, 6: TEX, 7: NOP
system.gpu.shader_cores0.activeCycles            7083                       # Number of cycles this shader was executing a CTA
system.gpu.shader_cores0.notStalledCycles         4740                       # Number of cycles this shader was actually executing at least one instance
system.gpu.shader_cores0.instInstances         185600                       # Total instructions executed by all PEs in the core
system.gpu.shader_cores0.instPerCycle       26.203586                       # Instruction instances per cycle
system.gpu.shader_cores0.kernels_completed            2                       # Number of kernels completed
system.gpu.shader_cores0.lsq.data_tlb.hits            0                       # Number of hits in this TLB
system.gpu.shader_cores0.lsq.data_tlb.misses            0                       # Number of misses in this TLB
system.gpu.shader_cores0.lsq.data_tlb.hitRate          nan                       # Hit rate for this TLB
system.gpu.shader_cores0.lsq.warpInstBufActive::samples      8812643                       # Histogram of number of active warp inst buffers at a given time
system.gpu.shader_cores0.lsq.warpInstBufActive::mean    11.641641                       # Histogram of number of active warp inst buffers at a given time
system.gpu.shader_cores0.lsq.warpInstBufActive::gmean          nan                       # Histogram of number of active warp inst buffers at a given time
system.gpu.shader_cores0.lsq.warpInstBufActive::stdev    12.458956                       # Histogram of number of active warp inst buffers at a given time
system.gpu.shader_cores0.lsq.warpInstBufActive::0      2767973     31.41%     31.41% # Histogram of number of active warp inst buffers at a given time
system.gpu.shader_cores0.lsq.warpInstBufActive::1       880264      9.99%     41.40% # Histogram of number of active warp inst buffers at a given time
system.gpu.shader_cores0.lsq.warpInstBufActive::2       332957      3.78%     45.18% # Histogram of number of active warp inst buffers at a given time
system.gpu.shader_cores0.lsq.warpInstBufActive::3       120036      1.36%     46.54% # Histogram of number of active warp inst buffers at a given time
system.gpu.shader_cores0.lsq.warpInstBufActive::4        98601      1.12%     47.66% # Histogram of number of active warp inst buffers at a given time
system.gpu.shader_cores0.lsq.warpInstBufActive::5       108604      1.23%     48.89% # Histogram of number of active warp inst buffers at a given time
system.gpu.shader_cores0.lsq.warpInstBufActive::6       141471      1.61%     50.49% # Histogram of number of active warp inst buffers at a given time
system.gpu.shader_cores0.lsq.warpInstBufActive::7       148616      1.69%     52.18% # Histogram of number of active warp inst buffers at a given time
system.gpu.shader_cores0.lsq.warpInstBufActive::8       282942      3.21%     55.39% # Histogram of number of active warp inst buffers at a given time
system.gpu.shader_cores0.lsq.warpInstBufActive::9       122894      1.39%     56.79% # Histogram of number of active warp inst buffers at a given time
system.gpu.shader_cores0.lsq.warpInstBufActive::10       155761      1.77%     58.55% # Histogram of number of active warp inst buffers at a given time
system.gpu.shader_cores0.lsq.warpInstBufActive::11        71450      0.81%     59.36% # Histogram of number of active warp inst buffers at a given time
system.gpu.shader_cores0.lsq.warpInstBufActive::12        67163      0.76%     60.13% # Histogram of number of active warp inst buffers at a given time
system.gpu.shader_cores0.lsq.warpInstBufActive::13        82882      0.94%     61.07% # Histogram of number of active warp inst buffers at a given time
system.gpu.shader_cores0.lsq.warpInstBufActive::14        82882      0.94%     62.01% # Histogram of number of active warp inst buffers at a given time
system.gpu.shader_cores0.lsq.warpInstBufActive::15        54302      0.62%     62.62% # Histogram of number of active warp inst buffers at a given time
system.gpu.shader_cores0.lsq.warpInstBufActive::16        78595      0.89%     63.52% # Histogram of number of active warp inst buffers at a given time
system.gpu.shader_cores0.lsq.warpInstBufActive::17       100030      1.14%     64.65% # Histogram of number of active warp inst buffers at a given time
system.gpu.shader_cores0.lsq.warpInstBufActive::18       111462      1.26%     65.92% # Histogram of number of active warp inst buffers at a given time
system.gpu.shader_cores0.lsq.warpInstBufActive::19        84311      0.96%     66.87% # Histogram of number of active warp inst buffers at a given time
system.gpu.shader_cores0.lsq.warpInstBufActive::20        47157      0.54%     67.41% # Histogram of number of active warp inst buffers at a given time
system.gpu.shader_cores0.lsq.warpInstBufActive::21        55731      0.63%     68.04% # Histogram of number of active warp inst buffers at a given time
system.gpu.shader_cores0.lsq.warpInstBufActive::22       130039      1.48%     69.52% # Histogram of number of active warp inst buffers at a given time
system.gpu.shader_cores0.lsq.warpInstBufActive::23       165764      1.88%     71.40% # Histogram of number of active warp inst buffers at a given time
system.gpu.shader_cores0.lsq.warpInstBufActive::24       202918      2.30%     73.70% # Histogram of number of active warp inst buffers at a given time
system.gpu.shader_cores0.lsq.warpInstBufActive::25       188628      2.14%     75.84% # Histogram of number of active warp inst buffers at a given time
system.gpu.shader_cores0.lsq.warpInstBufActive::26       154332      1.75%     77.59% # Histogram of number of active warp inst buffers at a given time
system.gpu.shader_cores0.lsq.warpInstBufActive::27       232927      2.64%     80.23% # Histogram of number of active warp inst buffers at a given time
system.gpu.shader_cores0.lsq.warpInstBufActive::28       257220      2.92%     83.15% # Histogram of number of active warp inst buffers at a given time
system.gpu.shader_cores0.lsq.warpInstBufActive::29       280084      3.18%     86.33% # Histogram of number of active warp inst buffers at a given time
system.gpu.shader_cores0.lsq.warpInstBufActive::30       268652      3.05%     89.38% # Histogram of number of active warp inst buffers at a given time
system.gpu.shader_cores0.lsq.warpInstBufActive::31       290087      3.29%     92.67% # Histogram of number of active warp inst buffers at a given time
system.gpu.shader_cores0.lsq.warpInstBufActive::32       643050      7.30%     99.97% # Histogram of number of active warp inst buffers at a given time
system.gpu.shader_cores0.lsq.warpInstBufActive::33         2858      0.03%    100.00% # Histogram of number of active warp inst buffers at a given time
system.gpu.shader_cores0.lsq.warpInstBufActive::34            0      0.00%    100.00% # Histogram of number of active warp inst buffers at a given time
system.gpu.shader_cores0.lsq.warpInstBufActive::35            0      0.00%    100.00% # Histogram of number of active warp inst buffers at a given time
system.gpu.shader_cores0.lsq.warpInstBufActive::36            0      0.00%    100.00% # Histogram of number of active warp inst buffers at a given time
system.gpu.shader_cores0.lsq.warpInstBufActive::37            0      0.00%    100.00% # Histogram of number of active warp inst buffers at a given time
system.gpu.shader_cores0.lsq.warpInstBufActive::38            0      0.00%    100.00% # Histogram of number of active warp inst buffers at a given time
system.gpu.shader_cores0.lsq.warpInstBufActive::39            0      0.00%    100.00% # Histogram of number of active warp inst buffers at a given time
system.gpu.shader_cores0.lsq.warpInstBufActive::40            0      0.00%    100.00% # Histogram of number of active warp inst buffers at a given time
system.gpu.shader_cores0.lsq.warpInstBufActive::41            0      0.00%    100.00% # Histogram of number of active warp inst buffers at a given time
system.gpu.shader_cores0.lsq.warpInstBufActive::42            0      0.00%    100.00% # Histogram of number of active warp inst buffers at a given time
system.gpu.shader_cores0.lsq.warpInstBufActive::43            0      0.00%    100.00% # Histogram of number of active warp inst buffers at a given time
system.gpu.shader_cores0.lsq.warpInstBufActive::44            0      0.00%    100.00% # Histogram of number of active warp inst buffers at a given time
system.gpu.shader_cores0.lsq.warpInstBufActive::45            0      0.00%    100.00% # Histogram of number of active warp inst buffers at a given time
system.gpu.shader_cores0.lsq.warpInstBufActive::46            0      0.00%    100.00% # Histogram of number of active warp inst buffers at a given time
system.gpu.shader_cores0.lsq.warpInstBufActive::47            0      0.00%    100.00% # Histogram of number of active warp inst buffers at a given time
system.gpu.shader_cores0.lsq.warpInstBufActive::48            0      0.00%    100.00% # Histogram of number of active warp inst buffers at a given time
system.gpu.shader_cores0.lsq.warpInstBufActive::49            0      0.00%    100.00% # Histogram of number of active warp inst buffers at a given time
system.gpu.shader_cores0.lsq.warpInstBufActive::50            0      0.00%    100.00% # Histogram of number of active warp inst buffers at a given time
system.gpu.shader_cores0.lsq.warpInstBufActive::51            0      0.00%    100.00% # Histogram of number of active warp inst buffers at a given time
system.gpu.shader_cores0.lsq.warpInstBufActive::52            0      0.00%    100.00% # Histogram of number of active warp inst buffers at a given time
system.gpu.shader_cores0.lsq.warpInstBufActive::53            0      0.00%    100.00% # Histogram of number of active warp inst buffers at a given time
system.gpu.shader_cores0.lsq.warpInstBufActive::54            0      0.00%    100.00% # Histogram of number of active warp inst buffers at a given time
system.gpu.shader_cores0.lsq.warpInstBufActive::55            0      0.00%    100.00% # Histogram of number of active warp inst buffers at a given time
system.gpu.shader_cores0.lsq.warpInstBufActive::56            0      0.00%    100.00% # Histogram of number of active warp inst buffers at a given time
system.gpu.shader_cores0.lsq.warpInstBufActive::57            0      0.00%    100.00% # Histogram of number of active warp inst buffers at a given time
system.gpu.shader_cores0.lsq.warpInstBufActive::58            0      0.00%    100.00% # Histogram of number of active warp inst buffers at a given time
system.gpu.shader_cores0.lsq.warpInstBufActive::59            0      0.00%    100.00% # Histogram of number of active warp inst buffers at a given time
system.gpu.shader_cores0.lsq.warpInstBufActive::60            0      0.00%    100.00% # Histogram of number of active warp inst buffers at a given time
system.gpu.shader_cores0.lsq.warpInstBufActive::61            0      0.00%    100.00% # Histogram of number of active warp inst buffers at a given time
system.gpu.shader_cores0.lsq.warpInstBufActive::62            0      0.00%    100.00% # Histogram of number of active warp inst buffers at a given time
system.gpu.shader_cores0.lsq.warpInstBufActive::63            0      0.00%    100.00% # Histogram of number of active warp inst buffers at a given time
system.gpu.shader_cores0.lsq.warpInstBufActive::64            0      0.00%    100.00% # Histogram of number of active warp inst buffers at a given time
system.gpu.shader_cores0.lsq.warpInstBufActive::total      8812643                       # Histogram of number of active warp inst buffers at a given time
system.gpu.shader_cores0.lsq.cacheAccesses     0.004490                       # Average number of concurrent outstanding cache accesses
system.gpu.shader_cores0.lsq.writebackBlockedCycles           84                       # Number of cycles blocked for core writeback stage
system.gpu.shader_cores0.lsq.mshrHitQueued          217                       # Number of hits on blocked lines in MSHRs
system.gpu.shader_cores0.lsq.mshrsFullCycles            0                       # Number of cycles stalled waiting for an MSHR
system.gpu.shader_cores0.lsq.mshrsFullCount            0                       # Number of times MSHRs filled
system.gpu.shader_cores0.lsq.warpCoalescedAccesses::samples          416                       # Number of coalesced accesses per warp instruction
system.gpu.shader_cores0.lsq.warpCoalescedAccesses::mean     1.769231                       # Number of coalesced accesses per warp instruction
system.gpu.shader_cores0.lsq.warpCoalescedAccesses::gmean     1.608176                       # Number of coalesced accesses per warp instruction
system.gpu.shader_cores0.lsq.warpCoalescedAccesses::stdev     0.763388                       # Number of coalesced accesses per warp instruction
system.gpu.shader_cores0.lsq.warpCoalescedAccesses::0            0      0.00%      0.00% # Number of coalesced accesses per warp instruction
system.gpu.shader_cores0.lsq.warpCoalescedAccesses::1          180     43.27%     43.27% # Number of coalesced accesses per warp instruction
system.gpu.shader_cores0.lsq.warpCoalescedAccesses::2          152     36.54%     79.81% # Number of coalesced accesses per warp instruction
system.gpu.shader_cores0.lsq.warpCoalescedAccesses::3           84     20.19%    100.00% # Number of coalesced accesses per warp instruction
system.gpu.shader_cores0.lsq.warpCoalescedAccesses::4            0      0.00%    100.00% # Number of coalesced accesses per warp instruction
system.gpu.shader_cores0.lsq.warpCoalescedAccesses::5            0      0.00%    100.00% # Number of coalesced accesses per warp instruction
system.gpu.shader_cores0.lsq.warpCoalescedAccesses::6            0      0.00%    100.00% # Number of coalesced accesses per warp instruction
system.gpu.shader_cores0.lsq.warpCoalescedAccesses::7            0      0.00%    100.00% # Number of coalesced accesses per warp instruction
system.gpu.shader_cores0.lsq.warpCoalescedAccesses::8            0      0.00%    100.00% # Number of coalesced accesses per warp instruction
system.gpu.shader_cores0.lsq.warpCoalescedAccesses::9            0      0.00%    100.00% # Number of coalesced accesses per warp instruction
system.gpu.shader_cores0.lsq.warpCoalescedAccesses::10            0      0.00%    100.00% # Number of coalesced accesses per warp instruction
system.gpu.shader_cores0.lsq.warpCoalescedAccesses::11            0      0.00%    100.00% # Number of coalesced accesses per warp instruction
system.gpu.shader_cores0.lsq.warpCoalescedAccesses::12            0      0.00%    100.00% # Number of coalesced accesses per warp instruction
system.gpu.shader_cores0.lsq.warpCoalescedAccesses::13            0      0.00%    100.00% # Number of coalesced accesses per warp instruction
system.gpu.shader_cores0.lsq.warpCoalescedAccesses::14            0      0.00%    100.00% # Number of coalesced accesses per warp instruction
system.gpu.shader_cores0.lsq.warpCoalescedAccesses::15            0      0.00%    100.00% # Number of coalesced accesses per warp instruction
system.gpu.shader_cores0.lsq.warpCoalescedAccesses::16            0      0.00%    100.00% # Number of coalesced accesses per warp instruction
system.gpu.shader_cores0.lsq.warpCoalescedAccesses::17            0      0.00%    100.00% # Number of coalesced accesses per warp instruction
system.gpu.shader_cores0.lsq.warpCoalescedAccesses::18            0      0.00%    100.00% # Number of coalesced accesses per warp instruction
system.gpu.shader_cores0.lsq.warpCoalescedAccesses::19            0      0.00%    100.00% # Number of coalesced accesses per warp instruction
system.gpu.shader_cores0.lsq.warpCoalescedAccesses::20            0      0.00%    100.00% # Number of coalesced accesses per warp instruction
system.gpu.shader_cores0.lsq.warpCoalescedAccesses::21            0      0.00%    100.00% # Number of coalesced accesses per warp instruction
system.gpu.shader_cores0.lsq.warpCoalescedAccesses::22            0      0.00%    100.00% # Number of coalesced accesses per warp instruction
system.gpu.shader_cores0.lsq.warpCoalescedAccesses::23            0      0.00%    100.00% # Number of coalesced accesses per warp instruction
system.gpu.shader_cores0.lsq.warpCoalescedAccesses::24            0      0.00%    100.00% # Number of coalesced accesses per warp instruction
system.gpu.shader_cores0.lsq.warpCoalescedAccesses::25            0      0.00%    100.00% # Number of coalesced accesses per warp instruction
system.gpu.shader_cores0.lsq.warpCoalescedAccesses::26            0      0.00%    100.00% # Number of coalesced accesses per warp instruction
system.gpu.shader_cores0.lsq.warpCoalescedAccesses::27            0      0.00%    100.00% # Number of coalesced accesses per warp instruction
system.gpu.shader_cores0.lsq.warpCoalescedAccesses::28            0      0.00%    100.00% # Number of coalesced accesses per warp instruction
system.gpu.shader_cores0.lsq.warpCoalescedAccesses::29            0      0.00%    100.00% # Number of coalesced accesses per warp instruction
system.gpu.shader_cores0.lsq.warpCoalescedAccesses::30            0      0.00%    100.00% # Number of coalesced accesses per warp instruction
system.gpu.shader_cores0.lsq.warpCoalescedAccesses::31            0      0.00%    100.00% # Number of coalesced accesses per warp instruction
system.gpu.shader_cores0.lsq.warpCoalescedAccesses::32            0      0.00%    100.00% # Number of coalesced accesses per warp instruction
system.gpu.shader_cores0.lsq.warpCoalescedAccesses::total          416                       # Number of coalesced accesses per warp instruction
system.gpu.shader_cores0.lsq.warpLatencyRead::samples          288                       # Latency in cycles for whole warp to finish the read
system.gpu.shader_cores0.lsq.warpLatencyRead::mean   231.083333                       # Latency in cycles for whole warp to finish the read
system.gpu.shader_cores0.lsq.warpLatencyRead::gmean   101.699385                       # Latency in cycles for whole warp to finish the read
system.gpu.shader_cores0.lsq.warpLatencyRead::stdev   241.526764                       # Latency in cycles for whole warp to finish the read
system.gpu.shader_cores0.lsq.warpLatencyRead::0-63          115     39.93%     39.93% # Latency in cycles for whole warp to finish the read
system.gpu.shader_cores0.lsq.warpLatencyRead::64-127           43     14.93%     54.86% # Latency in cycles for whole warp to finish the read
system.gpu.shader_cores0.lsq.warpLatencyRead::128-191           10      3.47%     58.33% # Latency in cycles for whole warp to finish the read
system.gpu.shader_cores0.lsq.warpLatencyRead::192-255           17      5.90%     64.24% # Latency in cycles for whole warp to finish the read
system.gpu.shader_cores0.lsq.warpLatencyRead::256-319            8      2.78%     67.01% # Latency in cycles for whole warp to finish the read
system.gpu.shader_cores0.lsq.warpLatencyRead::320-383           10      3.47%     70.49% # Latency in cycles for whole warp to finish the read
system.gpu.shader_cores0.lsq.warpLatencyRead::384-447            6      2.08%     72.57% # Latency in cycles for whole warp to finish the read
system.gpu.shader_cores0.lsq.warpLatencyRead::448-511           15      5.21%     77.78% # Latency in cycles for whole warp to finish the read
system.gpu.shader_cores0.lsq.warpLatencyRead::512-575           17      5.90%     83.68% # Latency in cycles for whole warp to finish the read
system.gpu.shader_cores0.lsq.warpLatencyRead::576-639           27      9.38%     93.06% # Latency in cycles for whole warp to finish the read
system.gpu.shader_cores0.lsq.warpLatencyRead::640-703           16      5.56%     98.61% # Latency in cycles for whole warp to finish the read
system.gpu.shader_cores0.lsq.warpLatencyRead::704-767            4      1.39%    100.00% # Latency in cycles for whole warp to finish the read
system.gpu.shader_cores0.lsq.warpLatencyRead::768-831            0      0.00%    100.00% # Latency in cycles for whole warp to finish the read
system.gpu.shader_cores0.lsq.warpLatencyRead::832-895            0      0.00%    100.00% # Latency in cycles for whole warp to finish the read
system.gpu.shader_cores0.lsq.warpLatencyRead::896-959            0      0.00%    100.00% # Latency in cycles for whole warp to finish the read
system.gpu.shader_cores0.lsq.warpLatencyRead::960-1023            0      0.00%    100.00% # Latency in cycles for whole warp to finish the read
system.gpu.shader_cores0.lsq.warpLatencyRead::total          288                       # Latency in cycles for whole warp to finish the read
system.gpu.shader_cores0.lsq.warpLatencyWrite::samples          128                       # Latency in cycles for whole warp to finish the write
system.gpu.shader_cores0.lsq.warpLatencyWrite::mean    22.390625                       # Latency in cycles for whole warp to finish the write
system.gpu.shader_cores0.lsq.warpLatencyWrite::gmean    19.035612                       # Latency in cycles for whole warp to finish the write
system.gpu.shader_cores0.lsq.warpLatencyWrite::stdev    15.215116                       # Latency in cycles for whole warp to finish the write
system.gpu.shader_cores0.lsq.warpLatencyWrite::0-7            0      0.00%      0.00% # Latency in cycles for whole warp to finish the write
system.gpu.shader_cores0.lsq.warpLatencyWrite::8-15           76     59.38%     59.38% # Latency in cycles for whole warp to finish the write
system.gpu.shader_cores0.lsq.warpLatencyWrite::16-23           14     10.94%     70.31% # Latency in cycles for whole warp to finish the write
system.gpu.shader_cores0.lsq.warpLatencyWrite::24-31           15     11.72%     82.03% # Latency in cycles for whole warp to finish the write
system.gpu.shader_cores0.lsq.warpLatencyWrite::32-39            7      5.47%     87.50% # Latency in cycles for whole warp to finish the write
system.gpu.shader_cores0.lsq.warpLatencyWrite::40-47            1      0.78%     88.28% # Latency in cycles for whole warp to finish the write
system.gpu.shader_cores0.lsq.warpLatencyWrite::48-55            2      1.56%     89.84% # Latency in cycles for whole warp to finish the write
system.gpu.shader_cores0.lsq.warpLatencyWrite::56-63           12      9.38%     99.22% # Latency in cycles for whole warp to finish the write
system.gpu.shader_cores0.lsq.warpLatencyWrite::64-71            1      0.78%    100.00% # Latency in cycles for whole warp to finish the write
system.gpu.shader_cores0.lsq.warpLatencyWrite::72-79            0      0.00%    100.00% # Latency in cycles for whole warp to finish the write
system.gpu.shader_cores0.lsq.warpLatencyWrite::80-87            0      0.00%    100.00% # Latency in cycles for whole warp to finish the write
system.gpu.shader_cores0.lsq.warpLatencyWrite::88-95            0      0.00%    100.00% # Latency in cycles for whole warp to finish the write
system.gpu.shader_cores0.lsq.warpLatencyWrite::96-103            0      0.00%    100.00% # Latency in cycles for whole warp to finish the write
system.gpu.shader_cores0.lsq.warpLatencyWrite::104-111            0      0.00%    100.00% # Latency in cycles for whole warp to finish the write
system.gpu.shader_cores0.lsq.warpLatencyWrite::112-119            0      0.00%    100.00% # Latency in cycles for whole warp to finish the write
system.gpu.shader_cores0.lsq.warpLatencyWrite::120-127            0      0.00%    100.00% # Latency in cycles for whole warp to finish the write
system.gpu.shader_cores0.lsq.warpLatencyWrite::total          128                       # Latency in cycles for whole warp to finish the write
system.gpu.shader_cores0.lsq.warpLatencyFence::samples          288                       # Latency in cycles for whole warp to finish the fence
system.gpu.shader_cores0.lsq.warpLatencyFence::mean     8.250000                       # Latency in cycles for whole warp to finish the fence
system.gpu.shader_cores0.lsq.warpLatencyFence::gmean     7.485505                       # Latency in cycles for whole warp to finish the fence
system.gpu.shader_cores0.lsq.warpLatencyFence::stdev     4.665090                       # Latency in cycles for whole warp to finish the fence
system.gpu.shader_cores0.lsq.warpLatencyFence::0-3            0      0.00%      0.00% # Latency in cycles for whole warp to finish the fence
system.gpu.shader_cores0.lsq.warpLatencyFence::4-7          212     73.61%     73.61% # Latency in cycles for whole warp to finish the fence
system.gpu.shader_cores0.lsq.warpLatencyFence::8-11           13      4.51%     78.12% # Latency in cycles for whole warp to finish the fence
system.gpu.shader_cores0.lsq.warpLatencyFence::12-15           52     18.06%     96.18% # Latency in cycles for whole warp to finish the fence
system.gpu.shader_cores0.lsq.warpLatencyFence::16-19            1      0.35%     96.53% # Latency in cycles for whole warp to finish the fence
system.gpu.shader_cores0.lsq.warpLatencyFence::20-23            0      0.00%     96.53% # Latency in cycles for whole warp to finish the fence
system.gpu.shader_cores0.lsq.warpLatencyFence::24-27            5      1.74%     98.26% # Latency in cycles for whole warp to finish the fence
system.gpu.shader_cores0.lsq.warpLatencyFence::28-31            4      1.39%     99.65% # Latency in cycles for whole warp to finish the fence
system.gpu.shader_cores0.lsq.warpLatencyFence::32-35            1      0.35%    100.00% # Latency in cycles for whole warp to finish the fence
system.gpu.shader_cores0.lsq.warpLatencyFence::36-39            0      0.00%    100.00% # Latency in cycles for whole warp to finish the fence
system.gpu.shader_cores0.lsq.warpLatencyFence::40-43            0      0.00%    100.00% # Latency in cycles for whole warp to finish the fence
system.gpu.shader_cores0.lsq.warpLatencyFence::44-47            0      0.00%    100.00% # Latency in cycles for whole warp to finish the fence
system.gpu.shader_cores0.lsq.warpLatencyFence::48-51            0      0.00%    100.00% # Latency in cycles for whole warp to finish the fence
system.gpu.shader_cores0.lsq.warpLatencyFence::52-55            0      0.00%    100.00% # Latency in cycles for whole warp to finish the fence
system.gpu.shader_cores0.lsq.warpLatencyFence::56-59            0      0.00%    100.00% # Latency in cycles for whole warp to finish the fence
system.gpu.shader_cores0.lsq.warpLatencyFence::60-63            0      0.00%    100.00% # Latency in cycles for whole warp to finish the fence
system.gpu.shader_cores0.lsq.warpLatencyFence::total          288                       # Latency in cycles for whole warp to finish the fence
system.gpu.shader_cores0.lsq.warpLatencyAtomic::samples            0                       # Latency in cycles for whole warp to finish the atomic
system.gpu.shader_cores0.lsq.warpLatencyAtomic::mean          nan                       # Latency in cycles for whole warp to finish the atomic
system.gpu.shader_cores0.lsq.warpLatencyAtomic::gmean          nan                       # Latency in cycles for whole warp to finish the atomic
system.gpu.shader_cores0.lsq.warpLatencyAtomic::stdev          nan                       # Latency in cycles for whole warp to finish the atomic
system.gpu.shader_cores0.lsq.warpLatencyAtomic::0            0                       # Latency in cycles for whole warp to finish the atomic
system.gpu.shader_cores0.lsq.warpLatencyAtomic::1            0                       # Latency in cycles for whole warp to finish the atomic
system.gpu.shader_cores0.lsq.warpLatencyAtomic::2            0                       # Latency in cycles for whole warp to finish the atomic
system.gpu.shader_cores0.lsq.warpLatencyAtomic::3            0                       # Latency in cycles for whole warp to finish the atomic
system.gpu.shader_cores0.lsq.warpLatencyAtomic::4            0                       # Latency in cycles for whole warp to finish the atomic
system.gpu.shader_cores0.lsq.warpLatencyAtomic::5            0                       # Latency in cycles for whole warp to finish the atomic
system.gpu.shader_cores0.lsq.warpLatencyAtomic::6            0                       # Latency in cycles for whole warp to finish the atomic
system.gpu.shader_cores0.lsq.warpLatencyAtomic::7            0                       # Latency in cycles for whole warp to finish the atomic
system.gpu.shader_cores0.lsq.warpLatencyAtomic::8            0                       # Latency in cycles for whole warp to finish the atomic
system.gpu.shader_cores0.lsq.warpLatencyAtomic::9            0                       # Latency in cycles for whole warp to finish the atomic
system.gpu.shader_cores0.lsq.warpLatencyAtomic::10            0                       # Latency in cycles for whole warp to finish the atomic
system.gpu.shader_cores0.lsq.warpLatencyAtomic::11            0                       # Latency in cycles for whole warp to finish the atomic
system.gpu.shader_cores0.lsq.warpLatencyAtomic::12            0                       # Latency in cycles for whole warp to finish the atomic
system.gpu.shader_cores0.lsq.warpLatencyAtomic::13            0                       # Latency in cycles for whole warp to finish the atomic
system.gpu.shader_cores0.lsq.warpLatencyAtomic::14            0                       # Latency in cycles for whole warp to finish the atomic
system.gpu.shader_cores0.lsq.warpLatencyAtomic::15            0                       # Latency in cycles for whole warp to finish the atomic
system.gpu.shader_cores0.lsq.warpLatencyAtomic::total            0                       # Latency in cycles for whole warp to finish the atomic
system.gpu.shader_cores0.lsq.tlbMissLatency::samples            0                       # Latency in cycles for TLB miss
system.gpu.shader_cores0.lsq.tlbMissLatency::mean          nan                       # Latency in cycles for TLB miss
system.gpu.shader_cores0.lsq.tlbMissLatency::gmean          nan                       # Latency in cycles for TLB miss
system.gpu.shader_cores0.lsq.tlbMissLatency::stdev          nan                       # Latency in cycles for TLB miss
system.gpu.shader_cores0.lsq.tlbMissLatency::0            0                       # Latency in cycles for TLB miss
system.gpu.shader_cores0.lsq.tlbMissLatency::1            0                       # Latency in cycles for TLB miss
system.gpu.shader_cores0.lsq.tlbMissLatency::2            0                       # Latency in cycles for TLB miss
system.gpu.shader_cores0.lsq.tlbMissLatency::3            0                       # Latency in cycles for TLB miss
system.gpu.shader_cores0.lsq.tlbMissLatency::4            0                       # Latency in cycles for TLB miss
system.gpu.shader_cores0.lsq.tlbMissLatency::5            0                       # Latency in cycles for TLB miss
system.gpu.shader_cores0.lsq.tlbMissLatency::6            0                       # Latency in cycles for TLB miss
system.gpu.shader_cores0.lsq.tlbMissLatency::7            0                       # Latency in cycles for TLB miss
system.gpu.shader_cores0.lsq.tlbMissLatency::8            0                       # Latency in cycles for TLB miss
system.gpu.shader_cores0.lsq.tlbMissLatency::9            0                       # Latency in cycles for TLB miss
system.gpu.shader_cores0.lsq.tlbMissLatency::10            0                       # Latency in cycles for TLB miss
system.gpu.shader_cores0.lsq.tlbMissLatency::11            0                       # Latency in cycles for TLB miss
system.gpu.shader_cores0.lsq.tlbMissLatency::12            0                       # Latency in cycles for TLB miss
system.gpu.shader_cores0.lsq.tlbMissLatency::13            0                       # Latency in cycles for TLB miss
system.gpu.shader_cores0.lsq.tlbMissLatency::14            0                       # Latency in cycles for TLB miss
system.gpu.shader_cores0.lsq.tlbMissLatency::15            0                       # Latency in cycles for TLB miss
system.gpu.shader_cores0.lsq.tlbMissLatency::total            0                       # Latency in cycles for TLB miss
system.gpu.shader_cores1.itb.hits                   0                       # Number of hits in this TLB
system.gpu.shader_cores1.itb.misses                 0                       # Number of misses in this TLB
system.gpu.shader_cores1.itb.hitRate              nan                       # Hit rate for this TLB
system.gpu.shader_cores1.local_loads                0                       # Number of loads from local space
system.gpu.shader_cores1.local_stores               0                       # Number of stores to local space
system.gpu.shader_cores1.shared_loads            5056                       # Number of loads from shared space
system.gpu.shader_cores1.shared_stores           3072                       # Number of stores to shared space
system.gpu.shader_cores1.param_kernel_loads         7296                       # Number of loads from kernel parameter space
system.gpu.shader_cores1.param_local_loads            0                       # Number of loads from local parameter space
system.gpu.shader_cores1.param_local_stores            0                       # Number of stores to local parameter space
system.gpu.shader_cores1.const_loads                0                       # Number of loads from constant space
system.gpu.shader_cores1.tex_loads                  0                       # Number of loads from texture space
system.gpu.shader_cores1.global_loads            8336                       # Number of loads from global space
system.gpu.shader_cores1.global_stores           3168                       # Number of stores to global space
system.gpu.shader_cores1.surf_loads                 0                       # Number of loads from surface space
system.gpu.shader_cores1.generic_loads              0                       # Number of loads from generic spaces (global, shared, local)
system.gpu.shader_cores1.generic_stores             0                       # Number of stores to generic spaces (global, shared, local)
system.gpu.shader_cores1.inst_cache_requests           13                       # Number of instruction cache requests sent
system.gpu.shader_cores1.inst_cache_retries            0                       # Number of instruction cache retries
system.gpu.shader_cores1.inst_counts::0             0                       # Inst counts: 1: ALU, 2: MAD, 3: CTRL, 4: SFU, 5: MEM, 6: TEX, 7: NOP
system.gpu.shader_cores1.inst_counts::1        130432                       # Inst counts: 1: ALU, 2: MAD, 3: CTRL, 4: SFU, 5: MEM, 6: TEX, 7: NOP
[...]
system.ruby.Directory.miss_mach_latency_hist::total         5334                      
system.ruby.Directory.miss_latency_hist.issue_to_initial_request::bucket_size            1                      
system.ruby.Directory.miss_latency_hist.issue_to_initial_request::max_bucket            9                      
system.ruby.Directory.miss_latency_hist.issue_to_initial_request::samples            1                      
system.ruby.Directory.miss_latency_hist.issue_to_initial_request::stdev          nan                      
system.ruby.Directory.miss_latency_hist.issue_to_initial_request |           1    100.00%    100.00% |           0      0.00%    100.00% |           0      0.00%    100.00% |           0      0.00%    100.00% |           0      0.00%    100.00% |           0      0.00%    100.00% |           0      0.00%    100.00% |           0      0.00%    100.00% |           0      0.00%    100.00% |           0      0.00%    100.00%
system.ruby.Directory.miss_latency_hist.issue_to_initial_request::total            1                      
system.ruby.Directory.miss_latency_hist.initial_to_forward::bucket_size            1                      
system.ruby.Directory.miss_latency_hist.initial_to_forward::max_bucket            9                      
system.ruby.Directory.miss_latency_hist.initial_to_forward::samples            1                      
system.ruby.Directory.miss_latency_hist.initial_to_forward::stdev          nan                      
system.ruby.Directory.miss_latency_hist.initial_to_forward |           1    100.00%    100.00% |           0      0.00%    100.00% |           0      0.00%    100.00% |           0      0.00%    100.00% |           0      0.00%    100.00% |           0      0.00%    100.00% |           0      0.00%    100.00% |           0      0.00%    100.00% |           0      0.00%    100.00% |           0      0.00%    100.00%
system.ruby.Directory.miss_latency_hist.initial_to_forward::total            1                      
system.ruby.Directory.miss_latency_hist.forward_to_first_response::bucket_size            1                      
system.ruby.Directory.miss_latency_hist.forward_to_first_response::max_bucket            9                      
system.ruby.Directory.miss_latency_hist.forward_to_first_response::samples            1                      
system.ruby.Directory.miss_latency_hist.forward_to_first_response::stdev          nan                      
system.ruby.Directory.miss_latency_hist.forward_to_first_response |           1    100.00%    100.00% |           0      0.00%    100.00% |           0      0.00%    100.00% |           0      0.00%    100.00% |           0      0.00%    100.00% |           0      0.00%    100.00% |           0      0.00%    100.00% |           0      0.00%    100.00% |           0      0.00%    100.00% |           0      0.00%    100.00%
system.ruby.Directory.miss_latency_hist.forward_to_first_response::total            1                      
system.ruby.Directory.miss_latency_hist.first_response_to_completion::bucket_size           16                      
system.ruby.Directory.miss_latency_hist.first_response_to_completion::max_bucket          159                      
system.ruby.Directory.miss_latency_hist.first_response_to_completion::samples            1                      
system.ruby.Directory.miss_latency_hist.first_response_to_completion::mean          153                      
system.ruby.Directory.miss_latency_hist.first_response_to_completion::gmean   153.000000                      
system.ruby.Directory.miss_latency_hist.first_response_to_completion::stdev          nan                      
system.ruby.Directory.miss_latency_hist.first_response_to_completion |           0      0.00%      0.00% |           0      0.00%      0.00% |           0      0.00%      0.00% |           0      0.00%      0.00% |           0      0.00%      0.00% |           0      0.00%      0.00% |           0      0.00%      0.00% |           0      0.00%      0.00% |           0      0.00%      0.00% |           1    100.00%    100.00%
system.ruby.Directory.miss_latency_hist.first_response_to_completion::total            1                      
system.ruby.LD.L1Cache.miss_type_mach_latency_hist::bucket_size          256                      
system.ruby.LD.L1Cache.miss_type_mach_latency_hist::max_bucket         2559                      
system.ruby.LD.L1Cache.miss_type_mach_latency_hist::samples          783                      
system.ruby.LD.L1Cache.miss_type_mach_latency_hist::mean   432.738186                      
system.ruby.LD.L1Cache.miss_type_mach_latency_hist::gmean   176.473583                      
system.ruby.LD.L1Cache.miss_type_mach_latency_hist::stdev   531.277329                      
system.ruby.LD.L1Cache.miss_type_mach_latency_hist |         510     65.13%     65.13% |          25      3.19%     68.33% |          20      2.55%     70.88% |          47      6.00%     76.88% |          88     11.24%     88.12% |          73      9.32%     97.45% |          19      2.43%     99.87% |           1      0.13%    100.00% |           0      0.00%    100.00% |           0      0.00%    100.00%
system.ruby.LD.L1Cache.miss_type_mach_latency_hist::total          783                      
system.ruby.LD.Directory.miss_type_mach_latency_hist::bucket_size          256                      
system.ruby.LD.Directory.miss_type_mach_latency_hist::max_bucket         2559                      
system.ruby.LD.Directory.miss_type_mach_latency_hist::samples         2122                      
system.ruby.LD.Directory.miss_type_mach_latency_hist::mean   442.432611                      
system.ruby.LD.Directory.miss_type_mach_latency_hist::gmean   309.304360                      
system.ruby.LD.Directory.miss_type_mach_latency_hist::stdev   459.395744                      
system.ruby.LD.Directory.miss_type_mach_latency_hist |        1504     70.88%     70.88% |         108      5.09%     75.97% |         116      5.47%     81.43% |          93      4.38%     85.82% |          83      3.91%     89.73% |          98      4.62%     94.34% |          95      4.48%     98.82% |          14      0.66%     99.48% |          11      0.52%    100.00% |           0      0.00%    100.00%
system.ruby.LD.Directory.miss_type_mach_latency_hist::total         2122                      
system.ruby.ST.L1Cache.miss_type_mach_latency_hist::bucket_size          256                      
system.ruby.ST.L1Cache.miss_type_mach_latency_hist::max_bucket         2559                      
system.ruby.ST.L1Cache.miss_type_mach_latency_hist::samples          263                      
system.ruby.ST.L1Cache.miss_type_mach_latency_hist::mean   753.718631                      
system.ruby.ST.L1Cache.miss_type_mach_latency_hist::gmean   325.514670                      
system.ruby.ST.L1Cache.miss_type_mach_latency_hist::stdev   627.484744                      
system.ruby.ST.L1Cache.miss_type_mach_latency_hist |         109     41.44%     41.44% |           0      0.00%     41.44% |          16      6.08%     47.53% |          21      7.98%     55.51% |          26      9.89%     65.40% |          73     27.76%     93.16% |          18      6.84%    100.00% |           0      0.00%    100.00% |           0      0.00%    100.00% |           0      0.00%    100.00%
system.ruby.ST.L1Cache.miss_type_mach_latency_hist::total          263                      
system.ruby.ST.Directory.miss_type_mach_latency_hist::bucket_size          256                      
system.ruby.ST.Directory.miss_type_mach_latency_hist::max_bucket         2559                      
system.ruby.ST.Directory.miss_type_mach_latency_hist::samples         1501                      
system.ruby.ST.Directory.miss_type_mach_latency_hist::mean   533.365090                      
system.ruby.ST.Directory.miss_type_mach_latency_hist::gmean   326.218230                      
system.ruby.ST.Directory.miss_type_mach_latency_hist::stdev   581.178309                      
system.ruby.ST.Directory.miss_type_mach_latency_hist |        1102     73.42%     73.42% |           6      0.40%     73.82% |           3      0.20%     74.02% |           4      0.27%     74.28% |          43      2.86%     77.15% |         142      9.46%     86.61% |         195     12.99%     99.60% |           6      0.40%    100.00% |           0      0.00%    100.00% |           0      0.00%    100.00%
system.ruby.ST.Directory.miss_type_mach_latency_hist::total         1501                      
system.ruby.IFETCH.L1Cache.miss_type_mach_latency_hist::bucket_size           32                      
system.ruby.IFETCH.L1Cache.miss_type_mach_latency_hist::max_bucket          319                      
system.ruby.IFETCH.L1Cache.miss_type_mach_latency_hist::samples           36                      
system.ruby.IFETCH.L1Cache.miss_type_mach_latency_hist::mean   131.194444                      
system.ruby.IFETCH.L1Cache.miss_type_mach_latency_hist::gmean   111.617753                      
system.ruby.IFETCH.L1Cache.miss_type_mach_latency_hist::stdev    68.488506                      
system.ruby.IFETCH.L1Cache.miss_type_mach_latency_hist |           0      0.00%      0.00% |          10     27.78%     27.78% |           4     11.11%     38.89% |           2      5.56%     44.44% |           5     13.89%     58.33% |           8     22.22%     80.56% |           6     16.67%     97.22% |           0      0.00%     97.22% |           0      0.00%     97.22% |           1      2.78%    100.00%
system.ruby.IFETCH.L1Cache.miss_type_mach_latency_hist::total           36                      
system.ruby.IFETCH.Directory.miss_type_mach_latency_hist::bucket_size          128                      
system.ruby.IFETCH.Directory.miss_type_mach_latency_hist::max_bucket         1279                      
system.ruby.IFETCH.Directory.miss_type_mach_latency_hist::samples         1675                      
system.ruby.IFETCH.Directory.miss_type_mach_latency_hist::mean   196.994030                      
system.ruby.IFETCH.Directory.miss_type_mach_latency_hist::gmean   195.560848                      
system.ruby.IFETCH.Directory.miss_type_mach_latency_hist::stdev    24.263980                      
system.ruby.IFETCH.Directory.miss_type_mach_latency_hist |           0      0.00%      0.00% |        1664     99.34%     99.34% |          10      0.60%     99.94% |           0      0.00%     99.94% |           0      0.00%     99.94% |           1      0.06%    100.00% |           0      0.00%    100.00% |           0      0.00%    100.00% |           0      0.00%    100.00% |           0      0.00%    100.00%
system.ruby.IFETCH.Directory.miss_type_mach_latency_hist::total         1675                      
system.ruby.RMW_Read.Directory.miss_type_mach_latency_hist::bucket_size           32                      
system.ruby.RMW_Read.Directory.miss_type_mach_latency_hist::max_bucket          319                      
system.ruby.RMW_Read.Directory.miss_type_mach_latency_hist::samples           36                      
system.ruby.RMW_Read.Directory.miss_type_mach_latency_hist::mean   199.861111                      
system.ruby.RMW_Read.Directory.miss_type_mach_latency_hist::gmean   199.193901                      
system.ruby.RMW_Read.Directory.miss_type_mach_latency_hist::stdev    15.243083                      
system.ruby.RMW_Read.Directory.miss_type_mach_latency_hist |           0      0.00%      0.00% |           0      0.00%      0.00% |           0      0.00%      0.00% |           0      0.00%      0.00% |           3      8.33%      8.33% |           0      0.00%      8.33% |          33     91.67%    100.00% |           0      0.00%    100.00% |           0      0.00%    100.00% |           0      0.00%    100.00%
system.ruby.RMW_Read.Directory.miss_type_mach_latency_hist::total           36                      
system.ruby.Directory_Controller.GETX            9305      0.00%      0.00%
system.ruby.Directory_Controller.PUTX            4672      0.00%      0.00%
system.ruby.Directory_Controller.Memory_Data         5334      0.00%      0.00%
system.ruby.Directory_Controller.Memory_Ack         4672      0.00%      0.00%
system.ruby.Directory_Controller.I.GETX          5334      0.00%      0.00%
system.ruby.Directory_Controller.M.GETX          1082      0.00%      0.00%
system.ruby.Directory_Controller.M.PUTX          4672      0.00%      0.00%
system.ruby.Directory_Controller.IM.GETX         2889      0.00%      0.00%
system.ruby.Directory_Controller.IM.Memory_Data         5334      0.00%      0.00%
system.ruby.Directory_Controller.MI.Memory_Ack         4672      0.00%      0.00%
system.ruby.L1Cache_Controller.Load      |     1240472     99.82%     99.82% |         428      0.03%     99.85% |         421      0.03%     99.89% |         428      0.03%     99.92% |         416      0.03%     99.95% |           0      0.00%     99.95% |         577      0.05%    100.00%
system.ruby.L1Cache_Controller.Load::total      1242742                      
system.ruby.L1Cache_Controller.Ifetch    |     6665237    100.00%    100.00% |          12      0.00%    100.00% |          13      0.00%    100.00% |          12      0.00%    100.00% |          12      0.00%    100.00% |           0      0.00%    100.00% |           0      0.00%    100.00%
system.ruby.L1Cache_Controller.Ifetch::total      6665286                      
system.ruby.L1Cache_Controller.Store     |      845549     99.78%     99.78% |         308      0.04%     99.82% |         322      0.04%     99.86% |         308      0.04%     99.89% |         320      0.04%     99.93% |           0      0.00%     99.93% |         576      0.07%    100.00%
system.ruby.L1Cache_Controller.Store::total       847383                      
system.ruby.L1Cache_Controller.Data      |        4247     66.19%     66.19% |         246      3.83%     70.03% |         256      3.99%     74.02% |         251      3.91%     77.93% |         263      4.10%     82.03% |           0      0.00%     82.03% |        1153     17.97%    100.00%
system.ruby.L1Cache_Controller.Data::total         6416                      
system.ruby.L1Cache_Controller.Fwd_GETX  |         172     15.90%     15.90% |         215     19.87%     35.77% |         214     19.78%     55.55% |         219     20.24%     75.79% |         220     20.33%     96.12% |           0      0.00%     96.12% |          42      3.88%    100.00%
system.ruby.L1Cache_Controller.Fwd_GETX::total         1082                      
system.ruby.L1Cache_Controller.Replacement |        3700     76.49%     76.49% |           0      0.00%     76.49% |           0      0.00%     76.49% |           0      0.00%     76.49% |           0      0.00%     76.49% |           0      0.00%     76.49% |        1137     23.51%    100.00%
system.ruby.L1Cache_Controller.Replacement::total         4837                      
system.ruby.L1Cache_Controller.Writeback_Ack |        3576     76.54%     76.54% |           0      0.00%     76.54% |           0      0.00%     76.54% |           0      0.00%     76.54% |           0      0.00%     76.54% |           0      0.00%     76.54% |        1096     23.46%    100.00%
system.ruby.L1Cache_Controller.Writeback_Ack::total         4672                      
system.ruby.L1Cache_Controller.I.Load    |        1466     50.46%     50.46% |         211      7.26%     57.73% |         214      7.37%     65.09% |         213      7.33%     72.43% |         224      7.71%     80.14% |           0      0.00%     80.14% |         577     19.86%    100.00%
system.ruby.L1Cache_Controller.I.Load::total         2905                      
system.ruby.L1Cache_Controller.I.Ifetch  |        1662     97.14%     97.14% |          12      0.70%     97.84% |          13      0.76%     98.60% |          12      0.70%     99.30% |          12      0.70%    100.00% |           0      0.00%    100.00% |           0      0.00%    100.00%
system.ruby.L1Cache_Controller.I.Ifetch::total         1711                      
system.ruby.L1Cache_Controller.I.Store   |        1119     62.17%     62.17% |          23      1.28%     63.44% |          29      1.61%     65.06% |          26      1.44%     66.50% |          27      1.50%     68.00% |           0      0.00%     68.00% |         576     32.00%    100.00%
system.ruby.L1Cache_Controller.I.Store::total         1800                      
system.ruby.L1Cache_Controller.I.Replacement |         124     75.15%     75.15% |           0      0.00%     75.15% |           0      0.00%     75.15% |           0      0.00%     75.15% |           0      0.00%     75.15% |           0      0.00%     75.15% |          41     24.85%    100.00%
system.ruby.L1Cache_Controller.I.Replacement::total          165                      
system.ruby.L1Cache_Controller.M.Load    |     1239006     99.93%     99.93% |         217      0.02%     99.95% |         207      0.02%     99.97% |         215      0.02%     99.98% |         192      0.02%    100.00% |           0      0.00%    100.00% |           0      0.00%    100.00%
system.ruby.L1Cache_Controller.M.Load::total      1239837                      
system.ruby.L1Cache_Controller.M.Ifetch  |     6663575    100.00%    100.00% |           0      0.00%    100.00% |           0      0.00%    100.00% |           0      0.00%    100.00% |           0      0.00%    100.00% |           0      0.00%    100.00% |           0      0.00%    100.00%
system.ruby.L1Cache_Controller.M.Ifetch::total      6663575                      
system.ruby.L1Cache_Controller.M.Store   |      844430     99.86%     99.86% |         285      0.03%     99.90% |         293      0.03%     99.93% |         282      0.03%     99.97% |         293      0.03%    100.00% |           0      0.00%    100.00% |           0      0.00%    100.00%
system.ruby.L1Cache_Controller.M.Store::total       845583                      
system.ruby.L1Cache_Controller.M.Fwd_GETX |         172     15.90%     15.90% |         215     19.87%     35.77% |         214     19.78%     55.55% |         219     20.24%     75.79% |         220     20.33%     96.12% |           0      0.00%     96.12% |          42      3.88%    100.00%
system.ruby.L1Cache_Controller.M.Fwd_GETX::total         1082                      
system.ruby.L1Cache_Controller.M.Replacement |        3576     76.54%     76.54% |           0      0.00%     76.54% |           0      0.00%     76.54% |           0      0.00%     76.54% |           0      0.00%     76.54% |           0      0.00%     76.54% |        1096     23.46%    100.00%
system.ruby.L1Cache_Controller.M.Replacement::total         4672                      
system.ruby.L1Cache_Controller.MI.Writeback_Ack |        3576     76.54%     76.54% |           0      0.00%     76.54% |           0      0.00%     76.54% |           0      0.00%     76.54% |           0      0.00%     76.54% |           0      0.00%     76.54% |        1096     23.46%    100.00%
system.ruby.L1Cache_Controller.MI.Writeback_Ack::total         4672                      
system.ruby.L1Cache_Controller.IS.Data   |        3128     67.76%     67.76% |         223      4.83%     72.60% |         227      4.92%     77.51% |         225      4.87%     82.39% |         236      5.11%     87.50% |           0      0.00%     87.50% |         577     12.50%    100.00%
system.ruby.L1Cache_Controller.IS.Data::total         4616                      
system.ruby.L1Cache_Controller.IM.Data   |        1119     62.17%     62.17% |          23      1.28%     63.44% |          29      1.61%     65.06% |          26      1.44%     66.50% |          27      1.50%     68.00% |           0      0.00%     68.00% |         576     32.00%    100.00%
system.ruby.L1Cache_Controller.IM.Data::total         1800                      

---------- End Simulation Statistics   ----------
