
---------- Begin Simulation Statistics ----------
sim_seconds                                  0.009209                       # Number of seconds simulated
sim_ticks                                  9209042500                       # Number of ticks simulated
final_tick                                 9209042500                       # Number of ticks from beginning of simulation (restored from checkpoints and never reset)
sim_freq                                 1000000000000                       # Frequency of simulated ticks
host_inst_rate                                 269650                       # Simulator instruction rate (inst/s)
host_op_rate                                   515156                       # Simulator op (including micro ops) rate (op/s)
host_tick_rate                              500603235                       # Simulator tick rate (ticks/s)
host_mem_usage                                4528520                       # Number of bytes of host memory used
host_seconds                                    18.40                       # Real time elapsed on the host
sim_insts                                     4960450                       # Number of instructions simulated
sim_ops                                       9476756                       # Number of ops (including micro ops) simulated
system.voltage_domain.voltage                       1                       # Voltage in Volts
system.clk_domain.clock                          1000                       # Clock period in ticks
system.mem_ctrls.clk_domain.clock                2500                       # Clock period in ticks
system.mem_ctrls.bytes_read::ruby.dir_cntrl0       682752                       # Number of bytes read from this memory
system.mem_ctrls.bytes_read::total             682752                       # Number of bytes read from this memory
system.mem_ctrls.bytes_written::ruby.dir_cntrl0       598016                       # Number of bytes written to this memory
system.mem_ctrls.bytes_written::total          598016                       # Number of bytes written to this memory
system.mem_ctrls.num_reads::ruby.dir_cntrl0         5334                       # Number of read requests responded to by this memory
system.mem_ctrls.num_reads::total                5334                       # Number of read requests responded to by this memory
system.mem_ctrls.num_writes::ruby.dir_cntrl0         4672                       # Number of write requests responded to by this memory
system.mem_ctrls.num_writes::total               4672                       # Number of write requests responded to by this memory
system.mem_ctrls.bw_read::ruby.dir_cntrl0     74139304                       # Total read bandwidth from this memory (bytes/s)
system.mem_ctrls.bw_read::total              74139304                       # Total read bandwidth from this memory (bytes/s)
system.mem_ctrls.bw_write::ruby.dir_cntrl0     64937913                       # Write bandwidth from this memory (bytes/s)
system.mem_ctrls.bw_write::total             64937913                       # Write bandwidth from this memory (bytes/s)
system.mem_ctrls.bw_total::ruby.dir_cntrl0    139077217                       # Total bandwidth to/from this memory (bytes/s)
system.mem_ctrls.bw_total::total            139077217                       # Total bandwidth to/from this memory (bytes/s)
system.mem_ctrls.memReq                         10006                       # Total number of memory requests
system.mem_ctrls.memRead                         5334                       # Number of memory reads
system.mem_ctrls.memWrite                        4672                       # Number of memory writes
system.mem_ctrls.memRefresh                     28781                       # Number of memory refreshes
system.mem_ctrls.memWaitCycles                  75932                       # Delay stalled at the head of the bank queue
system.mem_ctrls.memInputQ                       9615                       # Delay in the input queue
system.mem_ctrls.memBankQ                       35172                       # Delay behind the head of the bank queue
system.mem_ctrls.totalStalls                   120719                       # Total number of stall cycles
system.mem_ctrls.stallsPerReq               12.064661                       # Expected number of stall cycles per request
system.mem_ctrls.memBankBusy                    43742                       # memory stalls due to busy bank
system.mem_ctrls.memBusBusy                     12261                       # memory stalls due to busy bus
system.mem_ctrls.memReadWriteBusy                2308                       # memory stalls due to read write turnaround
system.mem_ctrls.memDataBusBusy                  1726                       # memory stalls due to read read turnaround
system.mem_ctrls.memArbWait                      8827                       # memory stalls due to arbitration
system.mem_ctrls.memNotOld                       7068                       # memory stalls due to anti starvation
system.mem_ctrls.memBankCount            |         218      2.18%      2.18% |         211      2.11%      4.29% |         444      4.44%      8.72% |         222      2.22%     10.94% |         326      3.26%     14.20% |         174      1.74%     15.94% |         346      3.46%     19.40% |         343      3.43%     22.83% |         178      1.78%     24.61% |         552      5.52%     30.12% |         192      1.92%     32.04% |         162      1.62%     33.66% |         168      1.68%     35.34% |         178      1.78%     37.12% |         179      1.79%     38.91% |        1710     17.09%     56.00% |         230      2.30%     58.30% |         398      3.98%     62.27% |         188      1.88%     64.15% |         202      2.02%     66.17% |         175      1.75%     67.92% |         158      1.58%     69.50% |         190      1.90%     71.40% |         200      2.00%     73.40% |         252      2.52%     75.91% |         212      2.12%     78.03% |         198      1.98%     80.01% |         840      8.39%     88.41% |         570      5.70%     94.10% |         202      2.02%     96.12% |         194      1.94%     98.06% |         194      1.94%    100.00% # Number of accesses per bank
system.mem_ctrls.memBankCount::total            10006                       # Number of accesses per bank
system.ruby_clk_domain.clock                      500                       # Clock period in ticks
system.ruby.phys_mem.bytes_read::cpu.inst     53321896                       # Number of bytes read from this memory
system.ruby.phys_mem.bytes_read::cpu.data      7972207                       # Number of bytes read from this memory
system.ruby.phys_mem.bytes_read::gpu.ce         73052                       # Number of bytes read from this memory
system.ruby.phys_mem.bytes_read::gpu.shader_cores0.data        35072                       # Number of bytes read from this memory
system.ruby.phys_mem.bytes_read::gpu.shader_cores0.inst          288                       # Number of bytes read from this memory
system.ruby.phys_mem.bytes_read::gpu.shader_cores1.data        35456                       # Number of bytes read from this memory
system.ruby.phys_mem.bytes_read::gpu.shader_cores1.inst          312                       # Number of bytes read from this memory
system.ruby.phys_mem.bytes_read::gpu.shader_cores2.data        35072                       # Number of bytes read from this memory
system.ruby.phys_mem.bytes_read::gpu.shader_cores2.inst          288                       # Number of bytes read from this memory
system.ruby.phys_mem.bytes_read::gpu.shader_cores3.data        34816                       # Number of bytes read from this memory
system.ruby.phys_mem.bytes_read::gpu.shader_cores3.inst          288                       # Number of bytes read from this memory
system.ruby.phys_mem.bytes_read::total       61508747                       # Number of bytes read from this memory
system.ruby.phys_mem.bytes_inst_read::cpu.inst     53321896                       # Number of instructions bytes read from this memory
system.ruby.phys_mem.bytes_inst_read::gpu.shader_cores0.inst          288                       # Number of instructions bytes read from this memory
system.ruby.phys_mem.bytes_inst_read::gpu.shader_cores1.inst          312                       # Number of instructions bytes read from this memory
system.ruby.phys_mem.bytes_inst_read::gpu.shader_cores2.inst          288                       # Number of instructions bytes read from this memory
system.ruby.phys_mem.bytes_inst_read::gpu.shader_cores3.inst          288                       # Number of instructions bytes read from this memory
system.ruby.phys_mem.bytes_inst_read::total     53323072                       # Number of instructions bytes read from this memory
system.ruby.phys_mem.bytes_written::cpu.data      4969927                       # Number of bytes written to this memory
system.ruby.phys_mem.bytes_written::gpu.ce        73052                       # Number of bytes written to this memory
system.ruby.phys_mem.bytes_written::gpu.shader_cores0.data        12544                       # Number of bytes written to this memory
system.ruby.phys_mem.bytes_written::gpu.shader_cores1.data        12672                       # Number of bytes written to this memory
system.ruby.phys_mem.bytes_written::gpu.shader_cores2.data        12544                       # Number of bytes written to this memory
system.ruby.phys_mem.bytes_written::gpu.shader_cores3.data        12544                       # Number of bytes written to this memory
system.ruby.phys_mem.bytes_written::total      5093283                       # Number of bytes written to this memory
system.ruby.phys_mem.num_reads::cpu.inst      6665237                       # Number of read requests responded to by this memory
system.ruby.phys_mem.num_reads::cpu.data      1297872                       # Number of read requests responded to by this memory
system.ruby.phys_mem.num_reads::gpu.ce            577                       # Number of read requests responded to by this memory
system.ruby.phys_mem.num_reads::gpu.shader_cores0.data          428                       # Number of read requests responded to by this memory
system.ruby.phys_mem.num_reads::gpu.shader_cores0.inst           12                       # Number of read requests responded to by this memory
system.ruby.phys_mem.num_reads::gpu.shader_cores1.data          421                       # Number of read requests responded to by this memory
system.ruby.phys_mem.num_reads::gpu.shader_cores1.inst           13                       # Number of read requests responded to by this memory
system.ruby.phys_mem.num_reads::gpu.shader_cores2.data          428                       # Number of read requests responded to by this memory
system.ruby.phys_mem.num_reads::gpu.shader_cores2.inst           12                       # Number of read requests responded to by this memory
system.ruby.phys_mem.num_reads::gpu.shader_cores3.data          416                       # Number of read requests responded to by this memory
system.ruby.phys_mem.num_reads::gpu.shader_cores3.inst           12                       # Number of read requests responded to by this memory
system.ruby.phys_mem.num_reads::total         7965428                       # Number of read requests responded to by this memory
system.ruby.phys_mem.num_writes::cpu.data       788149                       # Number of write requests responded to by this memory
system.ruby.phys_mem.num_writes::gpu.ce           576                       # Number of write requests responded to by this memory
system.ruby.phys_mem.num_writes::gpu.shader_cores0.data          308                       # Number of write requests responded to by this memory
system.ruby.phys_mem.num_writes::gpu.shader_cores1.data          322                       # Number of write requests responded to by this memory
system.ruby.phys_mem.num_writes::gpu.shader_cores2.data          308                       # Number of write requests responded to by this memory
system.ruby.phys_mem.num_writes::gpu.shader_cores3.data          320                       # Number of write requests responded to by this memory
system.ruby.phys_mem.num_writes::total         789983                       # Number of write requests responded to by this memory
system.ruby.phys_mem.bw_read::cpu.inst     5790167219                       # Total read bandwidth from this memory (bytes/s)
system.ruby.phys_mem.bw_read::cpu.data      865693366                       # Total read bandwidth from this memory (bytes/s)
system.ruby.phys_mem.bw_read::gpu.ce          7932638                       # Total read bandwidth from this memory (bytes/s)
system.ruby.phys_mem.bw_read::gpu.shader_cores0.data      3808431                       # Total read bandwidth from this memory (bytes/s)
system.ruby.phys_mem.bw_read::gpu.shader_cores0.inst        31274                       # Total read bandwidth from this memory (bytes/s)
system.ruby.phys_mem.bw_read::gpu.shader_cores1.data      3850129                       # Total read bandwidth from this memory (bytes/s)
system.ruby.phys_mem.bw_read::gpu.shader_cores1.inst        33880                       # Total read bandwidth from this memory (bytes/s)
system.ruby.phys_mem.bw_read::gpu.shader_cores2.data      3808431                       # Total read bandwidth from this memory (bytes/s)
system.ruby.phys_mem.bw_read::gpu.shader_cores2.inst        31274                       # Total read bandwidth from this memory (bytes/s)
system.ruby.phys_mem.bw_read::gpu.shader_cores3.data      3780632                       # Total read bandwidth from this memory (bytes/s)
system.ruby.phys_mem.bw_read::gpu.shader_cores3.inst        31274                       # Total read bandwidth from this memory (bytes/s)
system.ruby.phys_mem.bw_read::total        6679168545                       # Total read bandwidth from this memory (bytes/s)
system.ruby.phys_mem.bw_inst_read::cpu.inst   5790167219                       # Instruction read bandwidth from this memory (bytes/s)
system.ruby.phys_mem.bw_inst_read::gpu.shader_cores0.inst        31274                       # Instruction read bandwidth from this memory (bytes/s)
system.ruby.phys_mem.bw_inst_read::gpu.shader_cores1.inst        33880                       # Instruction read bandwidth from this memory (bytes/s)
system.ruby.phys_mem.bw_inst_read::gpu.shader_cores2.inst        31274                       # Instruction read bandwidth from this memory (bytes/s)
system.ruby.phys_mem.bw_inst_read::gpu.shader_cores3.inst        31274                       # Instruction read bandwidth from this memory (bytes/s)
system.ruby.phys_mem.bw_inst_read::total   5790294919                       # Instruction read bandwidth from this memory (bytes/s)
system.ruby.phys_mem.bw_write::cpu.data     539679017                       # Write bandwidth from this memory (bytes/s)
system.ruby.phys_mem.bw_write::gpu.ce         7932638                       # Write bandwidth from this memory (bytes/s)
system.ruby.phys_mem.bw_write::gpu.shader_cores0.data      1362139                       # Write bandwidth from this memory (bytes/s)
system.ruby.phys_mem.bw_write::gpu.shader_cores1.data      1376039                       # Write bandwidth from this memory (bytes/s)
system.ruby.phys_mem.bw_write::gpu.shader_cores2.data      1362139                       # Write bandwidth from this memory (bytes/s)
system.ruby.phys_mem.bw_write::gpu.shader_cores3.data      1362139                       # Write bandwidth from this memory (bytes/s)
system.ruby.phys_mem.bw_write::total        553074112                       # Write bandwidth from this memory (bytes/s)
system.ruby.phys_mem.bw_total::cpu.inst    5790167219                       # Total bandwidth to/from this memory (bytes/s)
system.ruby.phys_mem.bw_total::cpu.data    1405372383                       # Total bandwidth to/from this memory (bytes/s)
system.ruby.phys_mem.bw_total::gpu.ce        15865276                       # Total bandwidth to/from this memory (bytes/s)
system.ruby.phys_mem.bw_total::gpu.shader_cores0.data      5170570                       # Total bandwidth to/from this memory (bytes/s)
system.ruby.phys_mem.bw_total::gpu.shader_cores0.inst        31274                       # Total bandwidth to/from this memory (bytes/s)
system.ruby.phys_mem.bw_total::gpu.shader_cores1.data      5226168                       # Total bandwidth to/from this memory (bytes/s)
system.ruby.phys_mem.bw_total::gpu.shader_cores1.inst        33880                       # Total bandwidth to/from this memory (bytes/s)
system.ruby.phys_mem.bw_total::gpu.shader_cores2.data      5170570                       # Total bandwidth to/from this memory (bytes/s)
system.ruby.phys_mem.bw_total::gpu.shader_cores2.inst        31274                       # Total bandwidth to/from this memory (bytes/s)
system.ruby.phys_mem.bw_total::gpu.shader_cores3.data      5142771                       # Total bandwidth to/from this memory (bytes/s)
system.ruby.phys_mem.bw_total::gpu.shader_cores3.inst        31274                       # Total bandwidth to/from this memory (bytes/s)
system.ruby.phys_mem.bw_total::total       7232242657                       # Total bandwidth to/from this memory (bytes/s)
system.cpu_voltage_domain.voltage                   1                       # Voltage in Volts
system.cpu_clk_domain.clock                       500                       # Clock period in ticks
system.cpu.apic_clk_domain.clock                 8000                       # Clock period in ticks
system.cpu.workload.num_syscalls                   44                       # Number of system calls
system.cpu.numCycles                         18418085                       # number of cpu cycles simulated
system.cpu.numWorkItemsStarted                      1                       # number of work items this cpu started
system.cpu.numWorkItemsCompleted                    1                       # number of work items this cpu completed
system.cpu.committedInsts                     4960450                       # Number of instructions committed
system.cpu.committedOps                       9476756                       # Number of ops (including micro ops) committed
system.cpu.num_int_alu_accesses               9329223                       # Number of integer alu accesses
system.cpu.num_fp_alu_accesses                 212669                       # Number of float alu accesses
system.cpu.num_func_calls                      196548                       # number of times a function call or return occured
system.cpu.num_conditional_control_insts       812674                       # number of instructions that are conditional controls
system.cpu.num_int_insts                      9329223                       # number of integer instructions
system.cpu.num_fp_insts                        212669                       # number of float instructions
system.cpu.num_int_register_reads            17876767                       # number of times the integer registers were read
system.cpu.num_int_register_writes            7459322                       # number of times the integer registers were written
system.cpu.num_fp_register_reads               283204                       # number of times the floating registers were read
system.cpu.num_fp_register_writes              145430                       # number of times the floating registers were written
system.cpu.num_cc_register_reads              5507388                       # number of times the CC registers were read
system.cpu.num_cc_register_writes             3245237                       # number of times the CC registers were written
system.cpu.num_mem_refs                       2086021                       # number of memory refs
system.cpu.num_load_insts                     1297872                       # Number of load instructions
system.cpu.num_store_insts                     788149                       # Number of store instructions
system.cpu.num_idle_cycles               84862.263991                       # Number of idle cycles
system.cpu.num_busy_cycles               18333222.736009                       # Number of busy cycles
system.cpu.not_idle_fraction                 0.995392                       # Percentage of non-idle cycles
system.cpu.idle_fraction                     0.004608                       # Percentage of idle cycles
system.cpu.Branches                           1088957                       # Number of branches fetched
system.cpu.op_class::No_OpClass                 35027      0.37%      0.37% # Class of executed instruction
system.cpu.op_class::IntAlu                   7203164     76.01%     76.38% # Class of executed instruction
system.cpu.op_class::IntMult                    20875      0.22%     76.60% # Class of executed instruction
system.cpu.op_class::IntDiv                       571      0.01%     76.60% # Class of executed instruction
system.cpu.op_class::FloatAdd                  131098      1.38%     77.99% # Class of executed instruction
system.cpu.op_class::FloatCmp                       0      0.00%     77.99% # Class of executed instruction
system.cpu.op_class::FloatCvt                       0      0.00%     77.99% # Class of executed instruction
system.cpu.op_class::FloatMult                      0      0.00%     77.99% # Class of executed instruction
system.cpu.op_class::FloatDiv                       0      0.00%     77.99% # Class of executed instruction
system.cpu.op_class::FloatSqrt                      0      0.00%     77.99% # Class of executed instruction
system.cpu.op_class::SimdAdd                        0      0.00%     77.99% # Class of executed instruction
system.cpu.op_class::SimdAddAcc                     0      0.00%     77.99% # Class of executed instruction
system.cpu.op_class::SimdAlu                        0      0.00%     77.99% # Class of executed instruction
system.cpu.op_class::SimdCmp                        0      0.00%     77.99% # Class of executed instruction
system.cpu.op_class::SimdCvt                        0      0.00%     77.99% # Class of executed instruction
system.cpu.op_class::SimdMisc                       0      0.00%     77.99% # Class of executed instruction
system.cpu.op_class::SimdMult                       0      0.00%     77.99% # Class of executed instruction
system.cpu.op_class::SimdMultAcc                    0      0.00%     77.99% # Class of executed instruction
system.cpu.op_class::SimdShift                      0      0.00%     77.99% # Class of executed instruction
system.cpu.op_class::SimdShiftAcc                   0      0.00%     77.99% # Class of executed instruction
system.cpu.op_class::SimdSqrt                       0      0.00%     77.99% # Class of executed instruction
system.cpu.op_class::SimdFloatAdd                   0      0.00%     77.99% # Class of executed instruction
system.cpu.op_class::SimdFloatAlu                   0      0.00%     77.99% # Class of executed instruction
system.cpu.op_class::SimdFloatCmp                   0      0.00%     77.99% # Class of executed instruction
system.cpu.op_class::SimdFloatCvt                   0      0.00%     77.99% # Class of executed instruction
system.cpu.op_class::SimdFloatDiv                   0      0.00%     77.99% # Class of executed instruction
system.cpu.op_class::SimdFloatMisc                  0      0.00%     77.99% # Class of executed instruction
system.cpu.op_class::SimdFloatMult                  0      0.00%     77.99% # Class of executed instruction
system.cpu.op_class::SimdFloatMultAcc               0      0.00%     77.99% # Class of executed instruction
system.cpu.op_class::SimdFloatSqrt                  0      0.00%     77.99% # Class of executed instruction
system.cpu.op_class::MemRead                  1297872     13.70%     91.68% # Class of executed instruction
system.cpu.op_class::MemWrite                  788149      8.32%    100.00% # Class of executed instruction
system.cpu.op_class::IprAccess                      0      0.00%    100.00% # Class of executed instruction
system.cpu.op_class::InstPrefetch                   0      0.00%    100.00% # Class of executed instruction
system.cpu.op_class::total                    9476756                       # Class of executed instruction
system.gpu.clk_domain.voltage_domain.voltage            1                       # Voltage in Volts
system.gpu.clk_domain.clock                      1429                       # Clock period in ticks
system.gpu.dram_wrapper.clk_domain.clock          541                       # Clock period in ticks
system.gpu.icnt_wrapper.clk_domain.clock         2858                       # Clock period in ticks
system.ruby.delayHist::bucket_size                 32                       # delay histogram for all message
system.ruby.delayHist::max_bucket                 319                       # delay histogram for all message
system.ruby.delayHist::samples                  12136                       # delay histogram for all message
system.ruby.delayHist::mean                  1.465475                       # delay histogram for all message
system.ruby.delayHist::stdev                 6.726841                       # delay histogram for all message
system.ruby.delayHist                    |       12016     99.01%     99.01% |         101      0.83%     99.84% |          13      0.11%     99.95% |           3      0.02%     99.98% |           2      0.02%     99.99% |           1      0.01%    100.00% |           0      0.00%    100.00% |           0      0.00%    100.00% |           0      0.00%    100.00% |           0      0.00%    100.00% # delay histogram for all message
system.ruby.delayHist::total                    12136                       # delay histogram for all message
system.ruby.outstanding_req_hist::bucket_size            8                      
system.ruby.outstanding_req_hist::max_bucket           79                      
system.ruby.outstanding_req_hist::samples      8755411                      
system.ruby.outstanding_req_hist::mean       1.009213                      
system.ruby.outstanding_req_hist::gmean      1.000949                      
system.ruby.outstanding_req_hist::stdev      0.680278                      
system.ruby.outstanding_req_hist         |     8753525     99.98%     99.98% |         247      0.00%     99.98% |         255      0.00%     99.98% |         237      0.00%     99.99% |         221      0.00%     99.99% |          37      0.00%     99.99% |          38      0.00%     99.99% |          47      0.00%     99.99% |         804      0.01%    100.00% |           0      0.00%    100.00%
system.ruby.outstanding_req_hist::total       8755411                      
system.ruby.latency_hist::bucket_size             256                      
system.ruby.latency_hist::max_bucket             2559                      
system.ruby.latency_hist::samples             8755411                      
system.ruby.latency_hist::mean               1.298717                      
system.ruby.latency_hist::gmean              1.004069                      
system.ruby.latency_hist::stdev             16.928122                      
system.ruby.latency_hist                 |     8753967     99.98%     99.98% |         140      0.00%     99.99% |         151      0.00%     99.99% |         167      0.00%     99.99% |         268      0.00%     99.99% |         348      0.00%    100.00% |         302      0.00%    100.00% |          61      0.00%    100.00% |           7      0.00%    100.00% |           0      0.00%    100.00%
system.ruby.latency_hist::total               8755411                      
system.ruby.hit_latency_hist::bucket_size            1                      
system.ruby.hit_latency_hist::max_bucket            9                      
system.ruby.hit_latency_hist::samples         8749012                      
system.ruby.hit_latency_hist::mean                  1                      
system.ruby.hit_latency_hist::gmean                 1                      
system.ruby.hit_latency_hist             |           0      0.00%      0.00% |     8749012    100.00%    100.00% |           0      0.00%    100.00% |           0      0.00%    100.00% |           0      0.00%    100.00% |           0      0.00%    100.00% |           0      0.00%    100.00% |           0      0.00%    100.00% |           0      0.00%    100.00% |           0      0.00%    100.00%
system.ruby.hit_latency_hist::total           8749012                      
system.ruby.miss_latency_hist::bucket_size          256                      
system.ruby.miss_latency_hist::max_bucket         2559                      
system.ruby.miss_latency_hist::samples           6399                      
system.ruby.miss_latency_hist::mean        409.717925                      
system.ruby.miss_latency_hist::gmean       258.960631                      
system.ruby.miss_latency_hist::stdev       474.545572                      
system.ruby.miss_latency_hist            |        4955     77.43%     77.43% |         140      2.19%     79.62% |         151      2.36%     81.98% |         167      2.61%     84.59% |         268      4.19%     88.78% |         348      5.44%     94.22% |         302      4.72%     98.94% |          61      0.95%     99.89% |           7      0.11%    100.00% |           0      0.00%    100.00%
system.ruby.miss_latency_hist::total             6399                      
system.ruby.L1Cache.incomplete_times             1065                      
system.ruby.Directory.incomplete_times           5333                      
system.gpu.shader_mmu.numPagefaults                 0                       # Number of Pagefaults
system.gpu.shader_mmu.numPagewalks                178                       # Number of Pagewalks
system.gpu.shader_mmu.totalRequests               178                       # Total number of requests
system.gpu.shader_mmu.l2hits                        0                       # Hits in the shared L2
system.gpu.shader_mmu.prefetchHits                  0                       # Number of prefetch hits
system.gpu.shader_mmu.numPrefetches                 0                       # Number of prefetchs
system.gpu.shader_mmu.prefetchFaults                0                       # Number of faults caused by prefetches
system.gpu.shader_mmu.pagefaultLatency::samples            0                       # Latency to complete the pagefault
system.gpu.shader_mmu.pagefaultLatency::mean          nan                       # Latency to complete the pagefault
system.gpu.shader_mmu.pagefaultLatency::gmean          nan                       # Latency to complete the pagefault
system.gpu.shader_mmu.pagefaultLatency::stdev          nan                       # Latency to complete the pagefault
system.gpu.shader_mmu.pagefaultLatency::0            0                       # Latency to complete the pagefault
system.gpu.shader_mmu.pagefaultLatency::1            0                       # Latency to complete the pagefault
system.gpu.shader_mmu.pagefaultLatency::2            0                       # Latency to complete the pagefault
system.gpu.shader_mmu.pagefaultLatency::3            0                       # Latency to complete the pagefault
system.gpu.shader_mmu.pagefaultLatency::4            0                       # Latency to complete the pagefault
system.gpu.shader_mmu.pagefaultLatency::5            0                       # Latency to complete the pagefault
system.gpu.shader_mmu.pagefaultLatency::6            0                       # Latency to complete the pagefault
system.gpu.shader_mmu.pagefaultLatency::7            0                       # Latency to complete the pagefault
system.gpu.shader_mmu.pagefaultLatency::8            0                       # Latency to complete the pagefault
system.gpu.shader_mmu.pagefaultLatency::9            0                       # Latency to complete the pagefault
system.gpu.shader_mmu.pagefaultLatency::10            0                       # Latency to complete the pagefault
system.gpu.shader_mmu.pagefaultLatency::11            0                       # Latency to complete the pagefault
system.gpu.shader_mmu.pagefaultLatency::12            0                       # Latency to complete the pagefault
system.gpu.shader_mmu.pagefaultLatency::13            0                       # Latency to complete the pagefault
system.gpu.shader_mmu.pagefaultLatency::14            0                       # Latency to complete the pagefault
system.gpu.shader_mmu.pagefaultLatency::15            0                       # Latency to complete the pagefault
system.gpu.shader_mmu.pagefaultLatency::16            0                       # Latency to complete the pagefault
system.gpu.shader_mmu.pagefaultLatency::17            0                       # Latency to complete the pagefault
system.gpu.shader_mmu.pagefaultLatency::18            0                       # Latency to complete the pagefault
system.gpu.shader_mmu.pagefaultLatency::19            0                       # Latency to complete the pagefault
system.gpu.shader_mmu.pagefaultLatency::20            0                       # Latency to complete the pagefault
system.gpu.shader_mmu.pagefaultLatency::21            0                       # Latency to complete the pagefault
system.gpu.shader_mmu.pagefaultLatency::22            0                       # Latency to complete the pagefault
system.gpu.shader_mmu.pagefaultLatency::23            0                       # Latency to complete the pagefault
system.gpu.shader_mmu.pagefaultLatency::24            0                       # Latency to complete the pagefault
system.gpu.shader_mmu.pagefaultLatency::25            0                       # Latency to complete the pagefault
system.gpu.shader_mmu.pagefaultLatency::26            0                       # Latency to complete the pagefault
system.gpu.shader_mmu.pagefaultLatency::27            0                       # Latency to complete the pagefault
system.gpu.shader_mmu.pagefaultLatency::28            0                       # Latency to complete the pagefault
system.gpu.shader_mmu.pagefaultLatency::29            0                       # Latency to complete the pagefault
system.gpu.shader_mmu.pagefaultLatency::30            0                       # Latency to complete the pagefault
system.gpu.shader_mmu.pagefaultLatency::31            0                       # Latency to complete the pagefault
system.gpu.shader_mmu.pagefaultLatency::total            0                       # Latency to complete the pagefault
system.gpu.shader_mmu.concurrentWalks::samples          178                       # Number of outstanding walks
system.gpu.shader_mmu.concurrentWalks::mean            0                       # Number of outstanding walks
system.gpu.shader_mmu.concurrentWalks::gmean            0                       # Number of outstanding walks
system.gpu.shader_mmu.concurrentWalks::stdev            0                       # Number of outstanding walks
system.gpu.shader_mmu.concurrentWalks::0          178    100.00%    100.00% # Number of outstanding walks
system.gpu.shader_mmu.concurrentWalks::1            0      0.00%    100.00% # Number of outstanding walks
system.gpu.shader_mmu.concurrentWalks::2            0      0.00%    100.00% # Number of outstanding walks
system.gpu.shader_mmu.concurrentWalks::3            0      0.00%    100.00% # Number of outstanding walks
system.gpu.shader_mmu.concurrentWalks::4            0      0.00%    100.00% # Number of outstanding walks
system.gpu.shader_mmu.concurrentWalks::5            0      0.00%    100.00% # Number of outstanding walks
system.gpu.shader_mmu.concurrentWalks::6            0      0.00%    100.00% # Number of outstanding walks
system.gpu.shader_mmu.concurrentWalks::7            0      0.00%    100.00% # Number of outstanding walks
system.gpu.shader_mmu.concurrentWalks::8            0      0.00%    100.00% # Number of outstanding walks
system.gpu.shader_mmu.concurrentWalks::9            0      0.00%    100.00% # Number of outstanding walks
system.gpu.shader_mmu.concurrentWalks::10            0      0.00%    100.00% # Number of outstanding walks
system.gpu.shader_mmu.concurrentWalks::11            0      0.00%    100.00% # Number of outstanding walks
system.gpu.shader_mmu.concurrentWalks::12            0      0.00%    100.00% # Number of outstanding walks
system.gpu.shader_mmu.concurrentWalks::13            0      0.00%    100.00% # Number of outstanding walks
system.gpu.shader_mmu.concurrentWalks::14            0      0.00%    100.00% # Number of outstanding walks
system.gpu.shader_mmu.concurrentWalks::15            0      0.00%    100.00% # Number of outstanding walks
system.gpu.shader_mmu.concurrentWalks::total          178                       # Number of outstanding walks
system.gpu.shader_mmu.pagewalkLatency::samples          178                       # Latency to complete the pagewalk
system.gpu.shader_mmu.pagewalkLatency::mean            0                       # Latency to complete the pagewalk
system.gpu.shader_mmu.pagewalkLatency::gmean            0                       # Latency to complete the pagewalk
system.gpu.shader_mmu.pagewalkLatency::stdev            0                       # Latency to complete the pagewalk
system.gpu.shader_mmu.pagewalkLatency::0          178    100.00%    100.00% # Latency to complete the pagewalk
system.gpu.shader_mmu.pagewalkLatency::1            0      0.00%    100.00% # Latency to complete the pagewalk
system.gpu.shader_mmu.pagewalkLatency::2            0      0.00%    100.00% # Latency to complete the pagewalk
system.gpu.shader_mmu.pagewalkLatency::3            0      0.00%    100.00% # Latency to complete the pagewalk
system.gpu.shader_mmu.pagewalkLatency::4            0      0.00%    100.00% # Latency to complete the pagewalk
system.gpu.shader_mmu.pagewalkLatency::5            0      0.00%    100.00% # Latency to complete the pagewalk
system.gpu.shader_mmu.pagewalkLatency::6            0      0.00%    100.00% # Latency to complete the pagewalk
system.gpu.shader_mmu.pagewalkLatency::7            0      0.00%    100.00% # Latency to complete the pagewalk
system.gpu.shader_mmu.pagewalkLatency::8            0      0.00%    100.00% # Latency to complete the pagewalk
system.gpu.shader_mmu.pagewalkLatency::9            0      0.00%    100.00% # Latency to complete the pagewalk
system.gpu.shader_mmu.pagewalkLatency::10            0      0.00%    100.00% # Latency to complete the pagewalk
system.gpu.shader_mmu.pagewalkLatency::11            0      0.00%    100.00% # Latency to complete the pagewalk
system.gpu.shader_mmu.pagewalkLatency::12            0      0.00%    100.00% # Latency to complete the pagewalk
system.gpu.shader_mmu.pagewalkLatency::13            0      0.00%    100.00% # Latency to complete the pagewalk
system.gpu.shader_mmu.pagewalkLatency::14            0      0.00%    100.00% # Latency to complete the pagewalk
system.gpu.shader_mmu.pagewalkLatency::15            0      0.00%    100.00% # Latency to complete the pagewalk
system.gpu.shader_mmu.pagewalkLatency::16            0      0.00%    100.00% # Latency to complete the pagewalk
system.gpu.shader_mmu.pagewalkLatency::17            0      0.00%    100.00% # Latency to complete the pagewalk
system.gpu.shader_mmu.pagewalkLatency::18            0      0.00%    100.00% # Latency to complete the pagewalk
system.gpu.shader_mmu.pagewalkLatency::19            0      0.00%    100.00% # Latency to complete the pagewalk
system.gpu.shader_mmu.pagewalkLatency::20            0      0.00%    100.00% # Latency to complete the pagewalk
system.gpu.shader_mmu.pagewalkLatency::21            0      0.00%    100.00% # Latency to complete the pagewalk
system.gpu.shader_mmu.pagewalkLatency::22            0      0.00%    100.00% # Latency to complete the pagewalk
system.gpu.shader_mmu.pagewalkLatency::23            0      0.00%    100.00% # Latency to complete the pagewalk
system.gpu.shader_mmu.pagewalkLatency::24            0      0.00%    100.00% # Latency to complete the pagewalk
system.gpu.shader_mmu.pagewalkLatency::25            0      0.00%    100.00% # Latency to complete the pagewalk
system.gpu.shader_mmu.pagewalkLatency::26            0      0.00%    100.00% # Latency to complete the pagewalk
system.gpu.shader_mmu.pagewalkLatency::27            0      0.00%    100.00% # Latency to complete the pagewalk
system.gpu.shader_mmu.pagewalkLatency::28            0      0.00%    100.00% # Latency to complete the pagewalk
system.gpu.shader_mmu.pagewalkLatency::29            0      0.00%    100.00% # Latency to complete the pagewalk
system.gpu.shader_mmu.pagewalkLatency::30            0      0.00%    100.00% # Latency to complete the pagewalk
system.gpu.shader_mmu.pagewalkLatency::31            0      0.00%    100.00% # Latency to complete the pagewalk
system.gpu.shader_mmu.pagewalkLatency::total          178                       # Latency to complete the pagewalk
system.gpu.kernels_started                          2                       # Number of kernels started
system.gpu.kernels_completed                        2                       # Number of kernels completed
system.gpu.ce.device_dtb.hits                       0                       # Number of hits in this TLB
system.gpu.ce.device_dtb.misses                     0                       # Number of misses in this TLB
system.gpu.ce.device_dtb.hitRate                  nan                       # Hit rate for this TLB
system.gpu.ce.host_dtb.hits                       400                       # Number of hits in this TLB
system.gpu.ce.host_dtb.misses                     178                       # Number of misses in this TLB
system.gpu.ce.host_dtb.hitRate               0.692042                       # Hit rate for this TLB
system.gpu.shader_cores0.itb.hits                   0                       # Number of hits in this TLB
system.gpu.shader_cores0.itb.misses                 0                       # Number of misses in this TLB
system.gpu.shader_cores0.itb.hitRate              nan                       # Hit rate for this TLB
system.gpu.shader_cores0.local_loads                0                       # Number of loads from local space
system.gpu.shader_cores0.local_stores               0                       # Number of stores to local space
system.gpu.shader_cores0.shared_loads            5056                       # Number of loads from shared space
system.gpu.shader_cores0.shared_stores           3072                       # Number of stores to shared space
system.gpu.shader_cores0.param_kernel_loads         7296                       # Number of loads from kernel parameter space
system.gpu.shader_cores0.param_local_loads            0                       # Number of loads from local parameter space
system.gpu.shader_cores0.param_local_stores            0                       # Number of stores to local parameter space
system.gpu.shader_cores0.const_loads                0                       # Number of loads from constant space
system.gpu.shader_cores0.tex_loads                  0                       # Number of loads from texture space
system.gpu.shader_cores0.global_loads            8256                       # Number of loads from global space
system.gpu.shader_cores0.global_stores           3136                       # Number of stores to global space
system.gpu.shader_cores0.surf_loads                 0                       # Number of loads from surface space
system.gpu.shader_cores0.generic_loads              0                       # Number of loads from generic spaces (global, shared, local)
system.gpu.shader_cores0.generic_stores             0                       # Number of stores to generic spaces (global, shared, local)
system.gpu.shader_cores0.inst_cache_requests           12                       # Number of instruction cache requests sent
system.gpu.shader_cores0.inst_cache_retries            0                       # Number of instruction cache retries
system.gpu.shader_cores0.inst_counts::0             0                       # Inst counts: 1: ALU, 2: MAD, 3: CTRL, 4: SFU, 5: MEM, 6: TEX, 7: NOP
system.gpu.shader_cores0.inst_counts::1        130176                       # Inst counts: 1: ALU, 2: MAD, 3: CTRL, 4: SFU, 5: MEM, 6: TEX, 7: NOP
system.gpu.shader_cores0.inst_counts::2          2048                       # Inst counts: 1: ALU, 2: MAD, 3: CTRL, 4: SFU, 5: MEM, 6: TEX, 7: NOP
system.gpu.shader_cores0.inst_counts::3         20416                       # Inst counts: 1: ALU, 2: MAD, 3: CTRL, 4: SFU, 5: MEM, 6: TEX, 7: NOP
system.gpu.shader_cores0.inst_counts::4          6144                       # Inst counts: 1: ALU, 2: MAD, 3: CTRL, 4: SFU, 5: MEM, 6: TEX, 7: NOP
system.gpu.shader_cores0.inst_counts::5         26816                       # Inst counts: 1: ALU, 2: MAD, 3: CTRL, 4: SFU, 5: MEM, 6: TEX, 7: NOP
system.gpu.shader_cores0.inst_counts::6             0                       # Inst counts: 1: ALU, 2: MAD, 3: CTRL, 4: SFU, 5: MEM, 6: TEX, 7: NOP
system.gpu.shader_cores0.inst_counts::7             0                       # Inst counts: 1: ALU, 2: MAD, 3: CTRL, 4: SFU, 5: MEM, 6: TEX, 7: NOP
system.gpu.shader_cores0.activeCycles            7392                       # Number of cycles this shader was executing a CTA
system.gpu.shader_cores0.notStalledCycles         4814                       # Number of cycles this shader was actually executing at least one instance
system.gpu.shader_cores0.instInstances         185600                       # Total instructions executed by all PEs in the core
system.gpu.shader_cores0.instPerCycle       25.108225                       # Instruction instances per cycle
system.gpu.shader_cores0.kernels_completed            2                       # Number of kernels completed
system.gpu.shader_cores0.lsq.data_tlb.hits            0                       # Number of hits in this TLB
system.gpu.shader_cores0.lsq.data_tlb.misses            0                       # Number of misses in this TLB
system.gpu.shader_cores0.lsq.data_tlb.hitRate          nan                       # Hit rate for this TLB
system.gpu.shader_cores0.lsq.warpInstBufActive::samples      9252775                       # Histogram of number of active warp inst buffers at a given time
system.gpu.shader_cores0.lsq.warpInstBufActive::mean    12.506255                       # Histogram of number of active warp inst buffers at a given time
system.gpu.shader_cores0.lsq.warpInstBufActive::gmean          nan                       # Histogram of number of active warp inst buffers at a given time
system.gpu.shader_cores0.lsq.warpInstBufActive::stdev    12.954608                       # Histogram of number of active warp inst buffers at a given time
system.gpu.shader_cores0.lsq.warpInstBufActive::0      2823704     30.52%     30.52% # Histogram of number of active warp inst buffers at a given time
system.gpu.shader_cores0.lsq.warpInstBufActive::1       858829      9.28%     39.80% # Histogram of number of active warp inst buffers at a given time
system.gpu.shader_cores0.lsq.warpInstBufActive::2       382972      4.14%     43.94% # Histogram of number of active warp inst buffers at a given time
system.gpu.shader_cores0.lsq.warpInstBufActive::3        84311      0.91%     44.85% # Histogram of number of active warp inst buffers at a given time
system.gpu.shader_cores0.lsq.warpInstBufActive::4       118607      1.28%     46.13% # Histogram of number of active warp inst buffers at a given time
system.gpu.shader_cores0.lsq.warpInstBufActive::5       148616      1.61%     47.74% # Histogram of number of active warp inst buffers at a given time
system.gpu.shader_cores0.lsq.warpInstBufActive::6       165764      1.79%     49.53% # Histogram of number of active warp inst buffers at a given time
system.gpu.shader_cores0.lsq.warpInstBufActive::7       108604      1.17%     50.70% # Histogram of number of active warp inst buffers at a given time
system.gpu.shader_cores0.lsq.warpInstBufActive::8       264365      2.86%     53.56% # Histogram of number of active warp inst buffers at a given time
system.gpu.shader_cores0.lsq.warpInstBufActive::9       101459      1.10%     54.66% # Histogram of number of active warp inst buffers at a given time
system.gpu.shader_cores0.lsq.warpInstBufActive::10       117178      1.27%     55.92% # Histogram of number of active warp inst buffers at a given time
system.gpu.shader_cores0.lsq.warpInstBufActive::11       101459      1.10%     57.02% # Histogram of number of active warp inst buffers at a given time
system.gpu.shader_cores0.lsq.warpInstBufActive::12        88598      0.96%     57.98% # Histogram of number of active warp inst buffers at a given time
system.gpu.shader_cores0.lsq.warpInstBufActive::13        64305      0.69%     58.67% # Histogram of number of active warp inst buffers at a given time
system.gpu.shader_cores0.lsq.warpInstBufActive::14        80024      0.86%     59.54% # Histogram of number of active warp inst buffers at a given time
system.gpu.shader_cores0.lsq.warpInstBufActive::15        78595      0.85%     60.39% # Histogram of number of active warp inst buffers at a given time
system.gpu.shader_cores0.lsq.warpInstBufActive::16        71450      0.77%     61.16% # Histogram of number of active warp inst buffers at a given time
system.gpu.shader_cores0.lsq.warpInstBufActive::17        91456      0.99%     62.15% # Histogram of number of active warp inst buffers at a given time
system.gpu.shader_cores0.lsq.warpInstBufActive::18        67163      0.73%     62.87% # Histogram of number of active warp inst buffers at a given time
system.gpu.shader_cores0.lsq.warpInstBufActive::19       128610      1.39%     64.26% # Histogram of number of active warp inst buffers at a given time
system.gpu.shader_cores0.lsq.warpInstBufActive::20       110033      1.19%     65.45% # Histogram of number of active warp inst buffers at a given time
system.gpu.shader_cores0.lsq.warpInstBufActive::21        74308      0.80%     66.25% # Histogram of number of active warp inst buffers at a given time
system.gpu.shader_cores0.lsq.warpInstBufActive::22        60018      0.65%     66.90% # Histogram of number of active warp inst buffers at a given time
system.gpu.shader_cores0.lsq.warpInstBufActive::23        62876      0.68%     67.58% # Histogram of number of active warp inst buffers at a given time
system.gpu.shader_cores0.lsq.warpInstBufActive::24        54302      0.59%     68.17% # Histogram of number of active warp inst buffers at a given time
system.gpu.shader_cores0.lsq.warpInstBufActive::25        54302      0.59%     68.76% # Histogram of number of active warp inst buffers at a given time
system.gpu.shader_cores0.lsq.warpInstBufActive::26        92885      1.00%     69.76% # Histogram of number of active warp inst buffers at a given time
system.gpu.shader_cores0.lsq.warpInstBufActive::27       241501      2.61%     72.37% # Histogram of number of active warp inst buffers at a given time
system.gpu.shader_cores0.lsq.warpInstBufActive::28       515869      5.58%     77.95% # Histogram of number of active warp inst buffers at a given time
system.gpu.shader_cores0.lsq.warpInstBufActive::29       534446      5.78%     83.72% # Histogram of number of active warp inst buffers at a given time
system.gpu.shader_cores0.lsq.warpInstBufActive::30       517298      5.59%     89.31% # Histogram of number of active warp inst buffers at a given time
system.gpu.shader_cores0.lsq.warpInstBufActive::31       228640      2.47%     91.78% # Histogram of number of active warp inst buffers at a given time
system.gpu.shader_cores0.lsq.warpInstBufActive::32       758799      8.20%     99.98% # Histogram of number of active warp inst buffers at a given time
system.gpu.shader_cores0.lsq.warpInstBufActive::33         1429      0.02%    100.00% # Histogram of number of active warp inst buffers at a given time
system.gpu.shader_cores0.lsq.warpInstBufActive::34            0      0.00%    100.00% # Histogram of number of active warp inst buffers at a given time
system.gpu.shader_cores0.lsq.warpInstBufActive::35            0      0.00%    100.00% # Histogram of number of active warp inst buffers at a given time
system.gpu.shader_cores0.lsq.warpInstBufActive::36            0      0.00%    100.00% # Histogram of number of active warp inst buffers at a given time
system.gpu.shader_cores0.lsq.warpInstBufActive::37            0      0.00%    100.00% # Histogram of number of active warp inst buffers at a given time
system.gpu.shader_cores0.lsq.warpInstBufActive::38            0      0.00%    100.00% # Histogram of number of active warp inst buffers at a given time
system.gpu.shader_cores0.lsq.warpInstBufActive::39            0      0.00%    100.00% # Histogram of number of active warp inst buffers at a given time
system.gpu.shader_cores0.lsq.warpInstBufActive::40            0      0.00%    100.00% # Histogram of number of active warp inst buffers at a given time
system.gpu.shader_cores0.lsq.warpInstBufActive::41            0      0.00%    100.00% # Histogram of number of active warp inst buffers at a given time
system.gpu.shader_cores0.lsq.warpInstBufActive::42            0      0.00%    100.00% # Histogram of number of active warp inst buffers at a given time
system.gpu.shader_cores0.lsq.warpInstBufActive::43            0      0.00%    100.00% # Histogram of number of active warp inst buffers at a given time
system.gpu.shader_cores0.lsq.warpInstBufActive::44            0      0.00%    100.00% # Histogram of number of active warp inst buffers at a given time
system.gpu.shader_cores0.lsq.warpInstBufActive::45            0      0.00%    100.00% # Histogram of number of active warp inst buffers at a given time
system.gpu.shader_cores0.lsq.warpInstBufActive::46            0      0.00%    100.00% # Histogram of number of active warp inst buffers at a given time
system.gpu.shader_cores0.lsq.warpInstBufActive::47            0      0.00%    100.00% # Histogram of number of active warp inst buffers at a given time
system.gpu.shader_cores0.lsq.warpInstBufActive::48            0      0.00%    100.00% # Histogram of number of active warp inst buffers at a given time
system.gpu.shader_cores0.lsq.warpInstBufActive::49            0      0.00%    100.00% # Histogram of number of active warp inst buffers at a given time
system.gpu.shader_cores0.lsq.warpInstBufActive::50            0      0.00%    100.00% # Histogram of number of active warp inst buffers at a given time
system.gpu.shader_cores0.lsq.warpInstBufActive::51            0      0.00%    100.00% # Histogram of number of active warp inst buffers at a given time
system.gpu.shader_cores0.lsq.warpInstBufActive::52            0      0.00%    100.00% # Histogram of number of active warp inst buffers at a given time
system.gpu.shader_cores0.lsq.warpInstBufActive::53            0      0.00%    100.00% # Histogram of number of active warp inst buffers at a given time
system.gpu.shader_cores0.lsq.warpInstBufActive::54            0      0.00%    100.00% # Histogram of number of active warp inst buffers at a given time
system.gpu.shader_cores0.lsq.warpInstBufActive::55            0      0.00%    100.00% # Histogram of number of active warp inst buffers at a given time
system.gpu.shader_cores0.lsq.warpInstBufActive::56            0      0.00%    100.00% # Histogram of number of active warp inst buffers at a given time
system.gpu.shader_cores0.lsq.warpInstBufActive::57            0      0.00%    100.00% # Histogram of number of active warp inst buffers at a given time
system.gpu.shader_cores0.lsq.warpInstBufActive::58            0      0.00%    100.00% # Histogram of number of active warp inst buffers at a given time
system.gpu.shader_cores0.lsq.warpInstBufActive::59            0      0.00%    100.00% # Histogram of number of active warp inst buffers at a given time
system.gpu.shader_cores0.lsq.warpInstBufActive::60            0      0.00%    100.00% # Histogram of number of active warp inst buffers at a given time
system.gpu.shader_cores0.lsq.warpInstBufActive::61            0      0.00%    100.00% # Histogram of number of active warp inst buffers at a given time
system.gpu.shader_cores0.lsq.warpInstBufActive::62            0      0.00%    100.00% # Histogram of number of active warp inst buffers at a given time
system.gpu.shader_cores0.lsq.warpInstBufActive::63            0      0.00%    100.00% # Histogram of number of active warp inst buffers at a given time
system.gpu.shader_cores0.lsq.warpInstBufActive::64            0      0.00%    100.00% # Histogram of number of active warp inst buffers at a given time
system.gpu.shader_cores0.lsq.warpInstBufActive::total      9252775                       # Histogram of number of active warp inst buffers at a given time
system.gpu.shader_cores0.lsq.cacheAccesses     0.004924                       # Average number of concurrent outstanding cache accesses
system.gpu.shader_cores0.lsq.writebackBlockedCycles           95                       # Number of cycles blocked for core writeback stage
system.gpu.shader_cores0.lsq.mshrHitQueued          217                       # Number of hits on blocked lines in MSHRs
system.gpu.shader_cores0.lsq.mshrsFullCycles            0                       # Number of cycles stalled waiting for an MSHR
system.gpu.shader_cores0.lsq.mshrsFullCount            0                       # Number of times MSHRs filled
system.gpu.shader_cores0.lsq.warpCoalescedAccesses::samples          416                       # Number of coalesced accesses per warp instruction
system.gpu.shader_cores0.lsq.warpCoalescedAccesses::mean     1.769231                       # Number of coalesced accesses per warp instruction
system.gpu.shader_cores0.lsq.warpCoalescedAccesses::gmean     1.608176                       # Number of coalesced accesses per warp instruction
system.gpu.shader_cores0.lsq.warpCoalescedAccesses::stdev     0.763388                       # Number of coalesced accesses per warp instruction
system.gpu.shader_cores0.lsq.warpCoalescedAccesses::0            0      0.00%      0.00% # Number of coalesced accesses per warp instruction
system.gpu.shader_cores0.lsq.warpCoalescedAccesses::1          180     43.27%     43.27% # Number of coalesced accesses per warp instruction
system.gpu.shader_cores0.lsq.warpCoalescedAccesses::2          152     36.54%     79.81% # Number of coalesced accesses per warp instruction
system.gpu.shader_cores0.lsq.warpCoalescedAccesses::3           84     20.19%    100.00% # Number of coalesced accesses per warp instruction
system.gpu.shader_cores0.lsq.warpCoalescedAccesses::4            0      0.00%    100.00% # Number of coalesced accesses per warp instruction
system.gpu.shader_cores0.lsq.warpCoalescedAccesses::5            0      0.00%    100.00% # Number of coalesced accesses per warp instruction
system.gpu.shader_cores0.lsq.warpCoalescedAccesses::6            0      0.00%    100.00% # Number of coalesced accesses per warp instruction
system.gpu.shader_cores0.lsq.warpCoalescedAccesses::7            0      0.00%    100.00% # Number of coalesced accesses per warp instruction
system.gpu.shader_cores0.lsq.warpCoalescedAccesses::8            0      0.00%    100.00% # Number of coalesced accesses per warp instruction
system.gpu.shader_cores0.lsq.warpCoalescedAccesses::9            0      0.00%    100.00% # Number of coalesced accesses per warp instruction
system.gpu.shader_cores0.lsq.warpCoalescedAccesses::10            0      0.00%    100.00% # Number of coalesced accesses per warp instruction
system.gpu.shader_cores0.lsq.warpCoalescedAccesses::11            0      0.00%    100.00% # Number of coalesced accesses per warp instruction
system.gpu.shader_cores0.lsq.warpCoalescedAccesses::12            0      0.00%    100.00% # Number of coalesced accesses per warp instruction
system.gpu.shader_cores0.lsq.warpCoalescedAccesses::13            0      0.00%    100.00% # Number of coalesced accesses per warp instruction
system.gpu.shader_cores0.lsq.warpCoalescedAccesses::14            0      0.00%    100.00% # Number of coalesced accesses per warp instruction
system.gpu.shader_cores0.lsq.warpCoalescedAccesses::15            0      0.00%    100.00% # Number of coalesced accesses per warp instruction
system.gpu.shader_cores0.lsq.warpCoalescedAccesses::16            0      0.00%    100.00% # Number of coalesced accesses per warp instruction
system.gpu.shader_cores0.lsq.warpCoalescedAccesses::17            0      0.00%    100.00% # Number of coalesced accesses per warp instruction
system.gpu.shader_cores0.lsq.warpCoalescedAccesses::18            0      0.00%    100.00% # Number of coalesced accesses per warp instruction
system.gpu.shader_cores0.lsq.warpCoalescedAccesses::19            0      0.00%    100.00% # Number of coalesced accesses per warp instruction
system.gpu.shader_cores0.lsq.warpCoalescedAccesses::20            0      0.00%    100.00% # Number of coalesced accesses per warp instruction
system.gpu.shader_cores0.lsq.warpCoalescedAccesses::21            0      0.00%    100.00% # Number of coalesced accesses per warp instruction
system.gpu.shader_cores0.lsq.warpCoalescedAccesses::22            0      0.00%    100.00% # Number of coalesced accesses per warp instruction
system.gpu.shader_cores0.lsq.warpCoalescedAccesses::23            0      0.00%    100.00% # Number of coalesced accesses per warp instruction
system.gpu.shader_cores0.lsq.warpCoalescedAccesses::24            0      0.00%    100.00% # Number of coalesced accesses per warp instruction
system.gpu.shader_cores0.lsq.warpCoalescedAccesses::25            0      0.00%    100.00% # Number of coalesced accesses per warp instruction
system.gpu.shader_cores0.lsq.warpCoalescedAccesses::26            0      0.00%    100.00% # Number of coalesced accesses per warp instruction
system.gpu.shader_cores0.lsq.warpCoalescedAccesses::27            0      0.00%    100.00% # Number of coalesced accesses per warp instruction
system.gpu.shader_cores0.lsq.warpCoalescedAccesses::28            0      0.00%    100.00% # Number of coalesced accesses per warp instruction
system.gpu.shader_cores0.lsq.warpCoalescedAccesses::29            0      0.00%    100.00% # Number of coalesced accesses per warp instruction
system.gpu.shader_cores0.lsq.warpCoalescedAccesses::30            0      0.00%    100.00% # Number of coalesced accesses per warp instruction
system.gpu.shader_cores0.lsq.warpCoalescedAccesses::31            0      0.00%    100.00% # Number of coalesced accesses per warp instruction
system.gpu.shader_cores0.lsq.warpCoalescedAccesses::32            0      0.00%    100.00% # Number of coalesced accesses per warp instruction
system.gpu.shader_cores0.lsq.warpCoalescedAccesses::total          416                       # Number of coalesced accesses per warp instruction
system.gpu.shader_cores0.lsq.warpLatencyRead::samples          288                       # Latency in cycles for whole warp to finish the read
system.gpu.shader_cores0.lsq.warpLatencyRead::mean   261.611111                       # Latency in cycles for whole warp to finish the read
system.gpu.shader_cores0.lsq.warpLatencyRead::gmean   105.851475                       # Latency in cycles for whole warp to finish the read
system.gpu.shader_cores0.lsq.warpLatencyRead::stdev   274.307633                       # Latency in cycles for whole warp to finish the read
system.gpu.shader_cores0.lsq.warpLatencyRead::0-63          116     40.28%     40.28% # Latency in cycles for whole warp to finish the read
system.gpu.shader_cores0.lsq.warpLatencyRead::64-127           33     11.46%     51.74% # Latency in cycles for whole warp to finish the read
system.gpu.shader_cores0.lsq.warpLatencyRead::128-191           15      5.21%     56.94% # Latency in cycles for whole warp to finish the read
system.gpu.shader_cores0.lsq.warpLatencyRead::192-255           13      4.51%     61.46% # Latency in cycles for whole warp to finish the read
system.gpu.shader_cores0.lsq.warpLatencyRead::256-319            6      2.08%     63.54% # Latency in cycles for whole warp to finish the read
system.gpu.shader_cores0.lsq.warpLatencyRead::320-383           14      4.86%     68.40% # Latency in cycles for whole warp to finish the read
system.gpu.shader_cores0.lsq.warpLatencyRead::384-447            6      2.08%     70.49% # Latency in cycles for whole warp to finish the read
system.gpu.shader_cores0.lsq.warpLatencyRead::448-511            1      0.35%     70.83% # Latency in cycles for whole warp to finish the read
system.gpu.shader_cores0.lsq.warpLatencyRead::512-575            7      2.43%     73.26% # Latency in cycles for whole warp to finish the read
system.gpu.shader_cores0.lsq.warpLatencyRead::576-639           23      7.99%     81.25% # Latency in cycles for whole warp to finish the read
system.gpu.shader_cores0.lsq.warpLatencyRead::640-703           40     13.89%     95.14% # Latency in cycles for whole warp to finish the read
system.gpu.shader_cores0.lsq.warpLatencyRead::704-767           14      4.86%    100.00% # Latency in cycles for whole warp to finish the read
system.gpu.shader_cores0.lsq.warpLatencyRead::768-831            0      0.00%    100.00% # Latency in cycles for whole warp to finish the read
system.gpu.shader_cores0.lsq.warpLatencyRead::832-895            0      0.00%    100.00% # Latency in cycles for whole warp to finish the read
system.gpu.shader_cores0.lsq.warpLatencyRead::896-959            0      0.00%    100.00% # Latency in cycles for whole warp to finish the read
system.gpu.shader_cores0.lsq.warpLatencyRead::960-1023            0      0.00%    100.00% # Latency in cycles for whole warp to finish the read
system.gpu.shader_cores0.lsq.warpLatencyRead::total          288                       # Latency in cycles for whole warp to finish the read
system.gpu.shader_cores0.lsq.warpLatencyWrite::samples          128                       # Latency in cycles for whole warp to finish the write
system.gpu.shader_cores0.lsq.warpLatencyWrite::mean    25.500000                       # Latency in cycles for whole warp to finish the write
system.gpu.shader_cores0.lsq.warpLatencyWrite::gmean    20.623282                       # Latency in cycles for whole warp to finish the write
system.gpu.shader_cores0.lsq.warpLatencyWrite::stdev    18.701973                       # Latency in cycles for whole warp to finish the write
system.gpu.shader_cores0.lsq.warpLatencyWrite::0-7            0      0.00%      0.00% # Latency in cycles for whole warp to finish the write
system.gpu.shader_cores0.lsq.warpLatencyWrite::8-15           79     61.72%     61.72% # Latency in cycles for whole warp to finish the write
system.gpu.shader_cores0.lsq.warpLatencyWrite::16-23            1      0.78%     62.50% # Latency in cycles for whole warp to finish the write
system.gpu.shader_cores0.lsq.warpLatencyWrite::24-31           14     10.94%     73.44% # Latency in cycles for whole warp to finish the write
system.gpu.shader_cores0.lsq.warpLatencyWrite::32-39           10      7.81%     81.25% # Latency in cycles for whole warp to finish the write
system.gpu.shader_cores0.lsq.warpLatencyWrite::40-47            1      0.78%     82.03% # Latency in cycles for whole warp to finish the write
system.gpu.shader_cores0.lsq.warpLatencyWrite::48-55            5      3.91%     85.94% # Latency in cycles for whole warp to finish the write
system.gpu.shader_cores0.lsq.warpLatencyWrite::56-63            9      7.03%     92.97% # Latency in cycles for whole warp to finish the write
system.gpu.shader_cores0.lsq.warpLatencyWrite::64-71            7      5.47%     98.44% # Latency in cycles for whole warp to finish the write
system.gpu.shader_cores0.lsq.warpLatencyWrite::72-79            2      1.56%    100.00% # Latency in cycles for whole warp to finish the write
system.gpu.shader_cores0.lsq.warpLatencyWrite::80-87            0      0.00%    100.00% # Latency in cycles for whole warp to finish the write
system.gpu.shader_cores0.lsq.warpLatencyWrite::88-95            0      0.00%    100.00% # Latency in cycles for whole warp to finish the write
system.gpu.shader_cores0.lsq.warpLatencyWrite::96-103            0      0.00%    100.00% # Latency in cycles for whole warp to finish the write
system.gpu.shader_cores0.lsq.warpLatencyWrite::104-111            0      0.00%    100.00% # Latency in cycles for whole warp to finish the write
system.gpu.shader_cores0.lsq.warpLatencyWrite::112-119            0      0.00%    100.00% # Latency in cycles for whole warp to finish the write
system.gpu.shader_cores0.lsq.warpLatencyWrite::120-127            0      0.00%    100.00% # Latency in cycles for whole warp to finish the write
system.gpu.shader_cores0.lsq.warpLatencyWrite::total          128                       # Latency in cycles for whole warp to finish the write
system.gpu.shader_cores0.lsq.warpLatencyFence::samples          288                       # Latency in cycles for whole warp to finish the fence
system.gpu.shader_cores0.lsq.warpLatencyFence::mean     8.229167                       # Latency in cycles for whole warp to finish the fence
system.gpu.shader_cores0.lsq.warpLatencyFence::gmean     7.466833                       # Latency in cycles for whole warp to finish the fence
system.gpu.shader_cores0.lsq.warpLatencyFence::stdev     4.652703                       # Latency in cycles for whole warp to finish the fence
system.gpu.shader_cores0.lsq.warpLatencyFence::0-3            0      0.00%      0.00% # Latency in cycles for whole warp to finish the fence
system.gpu.shader_cores0.lsq.warpLatencyFence::4-7          213     73.96%     73.96% # Latency in cycles for whole warp to finish the fence
system.gpu.shader_cores0.lsq.warpLatencyFence::8-11           12      4.17%     78.12% # Latency in cycles for whole warp to finish the fence
system.gpu.shader_cores0.lsq.warpLatencyFence::12-15           53     18.40%     96.53% # Latency in cycles for whole warp to finish the fence
system.gpu.shader_cores0.lsq.warpLatencyFence::16-19            0      0.00%     96.53% # Latency in cycles for whole warp to finish the fence
system.gpu.shader_cores0.lsq.warpLatencyFence::20-23            0      0.00%     96.53% # Latency in cycles for whole warp to finish the fence
system.gpu.shader_cores0.lsq.warpLatencyFence::24-27            6      2.08%     98.61% # Latency in cycles for whole warp to finish the fence
system.gpu.shader_cores0.lsq.warpLatencyFence::28-31            3      1.04%     99.65% # Latency in cycles for whole warp to finish the fence
system.gpu.shader_cores0.lsq.warpLatencyFence::32-35            1      0.35%    100.00% # Latency in cycles for whole warp to finish the fence
system.gpu.shader_cores0.lsq.warpLatencyFence::36-39            0      0.00%    100.00% # Latency in cycles for whole warp to finish the fence
system.gpu.shader_cores0.lsq.warpLatencyFence::40-43            0      0.00%    100.00% # Latency in cycles for whole warp to finish the fence
system.gpu.shader_cores0.lsq.warpLatencyFence::44-47            0      0.00%    100.00% # Latency in cycles for whole warp to finish the fence
system.gpu.shader_cores0.lsq.warpLatencyFence::48-51            0      0.00%    100.00% # Latency in cycles for whole warp to finish the fence
system.gpu.shader_cores0.lsq.warpLatencyFence::52-55            0      0.00%    100.00% # Latency in cycles for whole warp to finish the fence
system.gpu.shader_cores0.lsq.warpLatencyFence::56-59            0      0.00%    100.00% # Latency in cycles for whole warp to finish the fence
system.gpu.shader_cores0.lsq.warpLatencyFence::60-63            0      0.00%    100.00% # Latency in cycles for whole warp to finish the fence
system.gpu.shader_cores0.lsq.warpLatencyFence::total          288                       # Latency in cycles for whole warp to finish the fence
system.gpu.shader_cores0.lsq.warpLatencyAtomic::samples            0                       # Latency in cycles for whole warp to finish the atomic
system.gpu.shader_cores0.lsq.warpLatencyAtomic::mean          nan                       # Latency in cycles for whole warp to finish the atomic
system.gpu.shader_cores0.lsq.warpLatencyAtomic::gmean          nan                       # Latency in cycles for whole warp to finish the atomic
system.gpu.shader_cores0.lsq.warpLatencyAtomic::stdev          nan                       # Latency in cycles for whole warp to finish the atomic
system.gpu.shader_cores0.lsq.warpLatencyAtomic::0            0                       # Latency in cycles for whole warp to finish the atomic
system.gpu.shader_cores0.lsq.warpLatencyAtomic::1            0                       # Latency in cycles for whole warp to finish the atomic
system.gpu.shader_cores0.lsq.warpLatencyAtomic::2            0                       # Latency in cycles for whole warp to finish the atomic
system.gpu.shader_cores0.lsq.warpLatencyAtomic::3            0                       # Latency in cycles for whole warp to finish the atomic
system.gpu.shader_cores0.lsq.warpLatencyAtomic::4            0                       # Latency in cycles for whole warp to finish the atomic
system.gpu.shader_cores0.lsq.warpLatencyAtomic::5            0                       # Latency in cycles for whole warp to finish the atomic
system.gpu.shader_cores0.lsq.warpLatencyAtomic::6            0                       # Latency in cycles for whole warp to finish the atomic
system.gpu.shader_cores0.lsq.warpLatencyAtomic::7            0                       # Latency in cycles for whole warp to finish the atomic
system.gpu.shader_cores0.lsq.warpLatencyAtomic::8            0                       # Latency in cycles for whole warp to finish the atomic
system.gpu.shader_cores0.lsq.warpLatencyAtomic::9            0                       # Latency in cycles for whole warp to finish the atomic
system.gpu.shader_cores0.lsq.warpLatencyAtomic::10            0                       # Latency in cycles for whole warp to finish the atomic
system.gpu.shader_cores0.lsq.warpLatencyAtomic::11            0                       # Latency in cycles for whole warp to finish the atomic
system.gpu.shader_cores0.lsq.warpLatencyAtomic::12            0                       # Latency in cycles for whole warp to finish the atomic
system.gpu.shader_cores0.lsq.warpLatencyAtomic::13            0                       # Latency in cycles for whole warp to finish the atomic
system.gpu.shader_cores0.lsq.warpLatencyAtomic::14            0                       # Latency in cycles for whole warp to finish the atomic
system.gpu.shader_cores0.lsq.warpLatencyAtomic::15            0                       # Latency in cycles for whole warp to finish the atomic
system.gpu.shader_cores0.lsq.warpLatencyAtomic::total            0                       # Latency in cycles for whole warp to finish the atomic
system.gpu.shader_cores0.lsq.tlbMissLatency::samples            0                       # Latency in cycles for TLB miss
system.gpu.shader_cores0.lsq.tlbMissLatency::mean          nan                       # Latency in cycles for TLB miss
system.gpu.shader_cores0.lsq.tlbMissLatency::gmean          nan                       # Latency in cycles for TLB miss
system.gpu.shader_cores0.lsq.tlbMissLatency::stdev          nan                       # Latency in cycles for TLB miss
system.gpu.shader_cores0.lsq.tlbMissLatency::0            0                       # Latency in cycles for TLB miss
system.gpu.shader_cores0.lsq.tlbMissLatency::1            0                       # Latency in cycles for TLB miss
system.gpu.shader_cores0.lsq.tlbMissLatency::2            0                       # Latency in cycles for TLB miss
system.gpu.shader_cores0.lsq.tlbMissLatency::3            0                       # Latency in cycles for TLB miss
system.gpu.shader_cores0.lsq.tlbMissLatency::4            0                       # Latency in cycles for TLB miss
system.gpu.shader_cores0.lsq.tlbMissLatency::5            0                       # Latency in cycles for TLB miss
system.gpu.shader_cores0.lsq.tlbMissLatency::6            0                       # Latency in cycles for TLB miss
system.gpu.shader_cores0.lsq.tlbMissLatency::7            0                       # Latency in cycles for TLB miss
system.gpu.shader_cores0.lsq.tlbMissLatency::8            0                       # Latency in cycles for TLB miss
system.gpu.shader_cores0.lsq.tlbMissLatency::9            0                       # Latency in cycles for TLB miss
system.gpu.shader_cores0.lsq.tlbMissLatency::10            0                       # Latency in cycles for TLB miss
system.gpu.shader_cores0.lsq.tlbMissLatency::11            0                       # Latency in cycles for TLB miss
system.gpu.shader_cores0.lsq.tlbMissLatency::12            0                       # Latency in cycles for TLB miss
system.gpu.shader_cores0.lsq.tlbMissLatency::13            0                       # Latency in cycles for TLB miss
system.gpu.shader_cores0.lsq.tlbMissLatency::14            0                       # Latency in cycles for TLB miss
system.gpu.shader_cores0.lsq.tlbMissLatency::15            0                       # Latency in cycles for TLB miss
system.gpu.shader_cores0.lsq.tlbMissLatency::total            0                       # Latency in cycles for TLB miss
system.gpu.shader_cores1.itb.hits                   0                       # Number of hits in this TLB
system.gpu.shader_cores1.itb.misses                 0                       # Number of misses in this TLB
system.gpu.shader_cores1.itb.hitRate              nan                       # Hit rate for this TLB
system.gpu.shader_cores1.local_loads                0                       # Number of loads from local space
system.gpu.shader_cores1.local_stores               0                       # Number of stores to local space
system.gpu.shader_cores1.shared_loads            5056                       # Number of loads from shared space
system.gpu.shader_cores1.shared_stores           3072                       # Number of stores to shared space
system.gpu.shader_cores1.param_kernel_loads         7296                       # Number of loads from kernel parameter space
system.gpu.shader_cores1.param_local_loads            0                       # Number of loads from local parameter space
system.gpu.shader_cores1.param_local_stores            0                       # Number of stores to local parameter space
system.gpu.shader_cores1.const_loads                0                       # Number of loads from constant space
system.gpu.shader_cores1.tex_loads                  0                       # Number of loads from texture space
system.gpu.shader_cores1.global_loads            8336                       # Number of loads from global space
system.gpu.shader_cores1.global_stores           3168                       # Number of stores to global space
system.gpu.shader_cores1.surf_loads                 0                       # Number of loads from surface space
system.gpu.shader_cores1.generic_loads              0                       # Number of loads from generic spaces (global, shared, local)
system.gpu.shader_cores1.generic_stores             0                       # Number of stores to generic spaces (global, shared, local)
system.gpu.shader_cores1.inst_cache_requests           13                       # Number of instruction cache requests sent
system.gpu.shader_cores1.inst_cache_retries            0                       # Number of instruction cache retries
system.gpu.shader_cores1.inst_counts::0             0                       # Inst counts: 1: ALU, 2: MAD, 3: CTRL, 4: SFU, 5: MEM, 6: TEX, 7: NOP
system.gpu.shader_cores1.inst_counts::1        130432                       # Inst counts: 1: ALU, 2: MAD, 3: CTRL, 4: SFU, 5: MEM, 6: TEX, 7: NOP
system.gpu.shader_cores1.inst_counts::2          2080                       # Inst counts: 1: ALU, 2: MAD, 3: CTRL, 4: SFU, 5: MEM, 6: TEX, 7: NOP
[...]
system.ruby.Directory.miss_mach_latency_hist::total         5334                      
system.ruby.Directory.miss_latency_hist.issue_to_initial_request::bucket_size            1                      
system.ruby.Directory.miss_latency_hist.issue_to_initial_request::max_bucket            9                      
system.ruby.Directory.miss_latency_hist.issue_to_initial_request::samples            1                      
system.ruby.Directory.miss_latency_hist.issue_to_initial_request::stdev          nan                      
system.ruby.Directory.miss_latency_hist.issue_to_initial_request |           1    100.00%    100.00% |           0      0.00%    100.00% |           0      0.00%    100.00% |           0      0.00%    100.00% |           0      0.00%    100.00% |           0      0.00%    100.00% |           0      0.00%    100.00% |           0      0.00%    100.00% |           0      0.00%    100.00% |           0      0.00%    100.00%
system.ruby.Directory.miss_latency_hist.issue_to_initial_request::total            1                      
system.ruby.Directory.miss_latency_hist.initial_to_forward::bucket_size            1                      
system.ruby.Directory.miss_latency_hist.initial_to_forward::max_bucket            9                      
system.ruby.Directory.miss_latency_hist.initial_to_forward::samples            1                      
system.ruby.Directory.miss_latency_hist.initial_to_forward::stdev          nan                      
system.ruby.Directory.miss_latency_hist.initial_to_forward |           1    100.00%    100.00% |           0      0.00%    100.00% |           0      0.00%    100.00% |           0      0.00%    100.00% |           0      0.00%    100.00% |           0      0.00%    100.00% |           0      0.00%    100.00% |           0      0.00%    100.00% |           0      0.00%    100.00% |           0      0.00%    100.00%
system.ruby.Directory.miss_latency_hist.initial_to_forward::total            1                      
system.ruby.Directory.miss_latency_hist.forward_to_first_response::bucket_size            1                      
system.ruby.Directory.miss_latency_hist.forward_to_first_response::max_bucket            9                      
system.ruby.Directory.miss_latency_hist.forward_to_first_response::samples            1                      
system.ruby.Directory.miss_latency_hist.forward_to_first_response::stdev          nan                      
system.ruby.Directory.miss_latency_hist.forward_to_first_response |           1    100.00%    100.00% |           0      0.00%    100.00% |           0      0.00%    100.00% |           0      0.00%    100.00% |           0      0.00%    100.00% |           0      0.00%    100.00% |           0      0.00%    100.00% |           0      0.00%    100.00% |           0      0.00%    100.00% |           0      0.00%    100.00%
system.ruby.Directory.miss_latency_hist.forward_to_first_response::total            1                      
system.ruby.Directory.miss_latency_hist.first_response_to_completion::bucket_size           16                      
system.ruby.Directory.miss_latency_hist.first_response_to_completion::max_bucket          159                      
system.ruby.Directory.miss_latency_hist.first_response_to_completion::samples            1                      
system.ruby.Directory.miss_latency_hist.first_response_to_completion::mean          153                      
system.ruby.Directory.miss_latency_hist.first_response_to_completion::gmean   153.000000                      
system.ruby.Directory.miss_latency_hist.first_response_to_completion::stdev          nan                      
system.ruby.Directory.miss_latency_hist.first_response_to_completion |           0      0.00%      0.00% |           0      0.00%      0.00% |           0      0.00%      0.00% |           0      0.00%      0.00% |           0      0.00%      0.00% |           0      0.00%      0.00% |           0      0.00%      0.00% |           0      0.00%      0.00% |           0      0.00%      0.00% |           1    100.00%    100.00%
system.ruby.Directory.miss_latency_hist.first_response_to_completion::total            1                      
system.ruby.LD.L1Cache.miss_type_mach_latency_hist::bucket_size          256                      
system.ruby.LD.L1Cache.miss_type_mach_latency_hist::max_bucket         2559                      
system.ruby.LD.L1Cache.miss_type_mach_latency_hist::samples          771                      
system.ruby.LD.L1Cache.miss_type_mach_latency_hist::mean   440.887160                      
system.ruby.LD.L1Cache.miss_type_mach_latency_hist::gmean   180.892424                      
system.ruby.LD.L1Cache.miss_type_mach_latency_hist::stdev   531.718802                      
system.ruby.LD.L1Cache.miss_type_mach_latency_hist |         499     64.72%     64.72% |          21      2.72%     67.44% |          14      1.82%     69.26% |          49      6.36%     75.62% |          97     12.58%     88.20% |          80     10.38%     98.57% |          11      1.43%    100.00% |           0      0.00%    100.00% |           0      0.00%    100.00% |           0      0.00%    100.00%
system.ruby.LD.L1Cache.miss_type_mach_latency_hist::total          771                      
system.ruby.LD.Directory.miss_type_mach_latency_hist::bucket_size          256                      
system.ruby.LD.Directory.miss_type_mach_latency_hist::max_bucket         2559                      
system.ruby.LD.Directory.miss_type_mach_latency_hist::samples         2122                      
system.ruby.LD.Directory.miss_type_mach_latency_hist::mean   440.612158                      
system.ruby.LD.Directory.miss_type_mach_latency_hist::gmean   307.347492                      
system.ruby.LD.Directory.miss_type_mach_latency_hist::stdev   461.119630                      
system.ruby.LD.Directory.miss_type_mach_latency_hist |        1513     71.30%     71.30% |         105      4.95%     76.25% |         111      5.23%     81.48% |          87      4.10%     85.58% |          79      3.72%     89.30% |         105      4.95%     94.25% |          98      4.62%     98.87% |          17      0.80%     99.67% |           7      0.33%    100.00% |           0      0.00%    100.00%
system.ruby.LD.Directory.miss_type_mach_latency_hist::total         2122                      
system.ruby.ST.L1Cache.miss_type_mach_latency_hist::bucket_size          256                      
system.ruby.ST.L1Cache.miss_type_mach_latency_hist::max_bucket         2559                      
system.ruby.ST.L1Cache.miss_type_mach_latency_hist::samples          258                      
system.ruby.ST.L1Cache.miss_type_mach_latency_hist::mean   714.717054                      
system.ruby.ST.L1Cache.miss_type_mach_latency_hist::gmean   322.869593                      
system.ruby.ST.L1Cache.miss_type_mach_latency_hist::stdev   588.757884                      
system.ruby.ST.L1Cache.miss_type_mach_latency_hist |         104     40.31%     40.31% |           0      0.00%     40.31% |          22      8.53%     48.84% |          26     10.08%     58.91% |          42     16.28%     75.19% |          55     21.32%     96.51% |           9      3.49%    100.00% |           0      0.00%    100.00% |           0      0.00%    100.00% |           0      0.00%    100.00%
system.ruby.ST.L1Cache.miss_type_mach_latency_hist::total          258                      
system.ruby.ST.Directory.miss_type_mach_latency_hist::bucket_size          256                      
system.ruby.ST.Directory.miss_type_mach_latency_hist::max_bucket         2559                      
system.ruby.ST.Directory.miss_type_mach_latency_hist::samples         1501                      
system.ruby.ST.Directory.miss_type_mach_latency_hist::mean   545.698201                      
system.ruby.ST.Directory.miss_type_mach_latency_hist::gmean   328.699327                      
system.ruby.ST.Directory.miss_type_mach_latency_hist::stdev   604.072510                      
system.ruby.ST.Directory.miss_type_mach_latency_hist |        1101     73.35%     73.35% |           7      0.47%     73.82% |           3      0.20%     74.02% |           4      0.27%     74.28% |          50      3.33%     77.61% |         108      7.20%     84.81% |         184     12.26%     97.07% |          44      2.93%    100.00% |           0      0.00%    100.00% |           0      0.00%    100.00%
system.ruby.ST.Directory.miss_type_mach_latency_hist::total         1501                      
system.ruby.IFETCH.L1Cache.miss_type_mach_latency_hist::bucket_size          128                      
system.ruby.IFETCH.L1Cache.miss_type_mach_latency_hist::max_bucket         1279                      
system.ruby.IFETCH.L1Cache.miss_type_mach_latency_hist::samples           36                      
system.ruby.IFETCH.L1Cache.miss_type_mach_latency_hist::mean   178.472222                      
system.ruby.IFETCH.L1Cache.miss_type_mach_latency_hist::gmean   144.831410                      
system.ruby.IFETCH.L1Cache.miss_type_mach_latency_hist::stdev   139.386715                      
system.ruby.IFETCH.L1Cache.miss_type_mach_latency_hist |          10     27.78%     27.78% |          23     63.89%     91.67% |           0      0.00%     91.67% |           2      5.56%     97.22% |           0      0.00%     97.22% |           1      2.78%    100.00% |           0      0.00%    100.00% |           0      0.00%    100.00% |           0      0.00%    100.00% |           0      0.00%    100.00%
system.ruby.IFETCH.L1Cache.miss_type_mach_latency_hist::total           36                      
system.ruby.IFETCH.Directory.miss_type_mach_latency_hist::bucket_size          128                      
system.ruby.IFETCH.Directory.miss_type_mach_latency_hist::max_bucket         1279                      
system.ruby.IFETCH.Directory.miss_type_mach_latency_hist::samples         1675                      
system.ruby.IFETCH.Directory.miss_type_mach_latency_hist::mean   196.878806                      
system.ruby.IFETCH.Directory.miss_type_mach_latency_hist::gmean   195.441314                      
system.ruby.IFETCH.Directory.miss_type_mach_latency_hist::stdev    25.067417                      
system.ruby.IFETCH.Directory.miss_type_mach_latency_hist |           0      0.00%      0.00% |        1669     99.64%     99.64% |           5      0.30%     99.94% |           0      0.00%     99.94% |           0      0.00%     99.94% |           0      0.00%     99.94% |           1      0.06%    100.00% |           0      0.00%    100.00% |           0      0.00%    100.00% |           0      0.00%    100.00%
system.ruby.IFETCH.Directory.miss_type_mach_latency_hist::total         1675                      
system.ruby.RMW_Read.Directory.miss_type_mach_latency_hist::bucket_size           32                      
system.ruby.RMW_Read.Directory.miss_type_mach_latency_hist::max_bucket          319                      
system.ruby.RMW_Read.Directory.miss_type_mach_latency_hist::samples           36                      
system.ruby.RMW_Read.Directory.miss_type_mach_latency_hist::mean   199.861111                      
system.ruby.RMW_Read.Directory.miss_type_mach_latency_hist::gmean   199.193901                      
system.ruby.RMW_Read.Directory.miss_type_mach_latency_hist::stdev    15.243083                      
system.ruby.RMW_Read.Directory.miss_type_mach_latency_hist |           0      0.00%      0.00% |           0      0.00%      0.00% |           0      0.00%      0.00% |           0      0.00%      0.00% |           3      8.33%      8.33% |           0      0.00%      8.33% |          33     91.67%    100.00% |           0      0.00%    100.00% |           0      0.00%    100.00% |           0      0.00%    100.00%
system.ruby.RMW_Read.Directory.miss_type_mach_latency_hist::total           36                      
system.ruby.Directory_Controller.GETX            9710      0.00%      0.00%
system.ruby.Directory_Controller.PUTX            4672      0.00%      0.00%
system.ruby.Directory_Controller.Memory_Data         5334      0.00%      0.00%
system.ruby.Directory_Controller.Memory_Ack         4672      0.00%      0.00%
system.ruby.Directory_Controller.I.GETX          5334      0.00%      0.00%
system.ruby.Directory_Controller.M.GETX          1065      0.00%      0.00%
system.ruby.Directory_Controller.M.PUTX          4672      0.00%      0.00%
system.ruby.Directory_Controller.IM.GETX         3311      0.00%      0.00%
system.ruby.Directory_Controller.IM.Memory_Data         5334      0.00%      0.00%
system.ruby.Directory_Controller.MI.Memory_Ack         4672      0.00%      0.00%
system.ruby.L1Cache_Controller.Load      |     1240472     99.82%     99.82% |         428      0.03%     99.85% |         421      0.03%     99.89% |         428      0.03%     99.92% |         416      0.03%     99.95% |           0      0.00%     99.95% |         577      0.05%    100.00%
system.ruby.L1Cache_Controller.Load::total      1242742                      
system.ruby.L1Cache_Controller.Ifetch    |     6665237    100.00%    100.00% |          12      0.00%    100.00% |          13      0.00%    100.00% |          12      0.00%    100.00% |          12      0.00%    100.00% |           0      0.00%    100.00% |           0      0.00%    100.00%
system.ruby.L1Cache_Controller.Ifetch::total      6665286                      
system.ruby.L1Cache_Controller.Store     |      845549     99.78%     99.78% |         308      0.04%     99.82% |         322      0.04%     99.86% |         308      0.04%     99.89% |         320      0.04%     99.93% |           0      0.00%     99.93% |         576      0.07%    100.00%
system.ruby.L1Cache_Controller.Store::total       847383                      
system.ruby.L1Cache_Controller.Data      |        4247     66.37%     66.37% |         248      3.88%     70.25% |         250      3.91%     74.15% |         249      3.89%     78.04% |         252      3.94%     81.98% |           0      0.00%     81.98% |        1153     18.02%    100.00%
system.ruby.L1Cache_Controller.Data::total         6399                      
system.ruby.L1Cache_Controller.Fwd_GETX  |         172     16.15%     16.15% |         213     20.00%     36.15% |         211     19.81%     55.96% |         217     20.38%     76.34% |         210     19.72%     96.06% |           0      0.00%     96.06% |          42      3.94%    100.00%
system.ruby.L1Cache_Controller.Fwd_GETX::total         1065                      
system.ruby.L1Cache_Controller.Replacement |        3700     76.49%     76.49% |           0      0.00%     76.49% |           0      0.00%     76.49% |           0      0.00%     76.49% |           0      0.00%     76.49% |           0      0.00%     76.49% |        1137     23.51%    100.00%
system.ruby.L1Cache_Controller.Replacement::total         4837                      
system.ruby.L1Cache_Controller.Writeback_Ack |        3576     76.54%     76.54% |           0      0.00%     76.54% |           0      0.00%     76.54% |           0      0.00%     76.54% |           0      0.00%     76.54% |           0      0.00%     76.54% |        1096     23.46%    100.00%
system.ruby.L1Cache_Controller.Writeback_Ack::total         4672                      
system.ruby.L1Cache_Controller.I.Load    |        1466     50.67%     50.67% |         211      7.29%     57.97% |         215      7.43%     65.40% |         211      7.29%     72.69% |         213      7.36%     80.06% |           0      0.00%     80.06% |         577     19.94%    100.00%
system.ruby.L1Cache_Controller.I.Load::total         2893                      
system.ruby.L1Cache_Controller.I.Ifetch  |        1662     97.14%     97.14% |          12      0.70%     97.84% |          13      0.76%     98.60% |          12      0.70%     99.30% |          12      0.70%    100.00% |           0      0.00%    100.00% |           0      0.00%    100.00%
system.ruby.L1Cache_Controller.I.Ifetch::total         1711                      
system.ruby.L1Cache_Controller.I.Store   |        1119     62.34%     62.34% |          25      1.39%     63.73% |          22      1.23%     64.96% |          26      1.45%     66.41% |          27      1.50%     67.91% |           0      0.00%     67.91% |         576     32.09%    100.00%
system.ruby.L1Cache_Controller.I.Store::total         1795                      
system.ruby.L1Cache_Controller.I.Replacement |         124     75.15%     75.15% |           0      0.00%     75.15% |           0      0.00%     75.15% |           0      0.00%     75.15% |           0      0.00%     75.15% |           0      0.00%     75.15% |          41     24.85%    100.00%
system.ruby.L1Cache_Controller.I.Replacement::total          165                      
system.ruby.L1Cache_Controller.M.Load    |     1239006     99.93%     99.93% |         217      0.02%     99.95% |         206      0.02%     99.97% |         217      0.02%     99.98% |         203      0.02%    100.00% |           0      0.00%    100.00% |           0      0.00%    100.00%
system.ruby.L1Cache_Controller.M.Load::total      1239849                      
system.ruby.L1Cache_Controller.M.Ifetch  |     6663575    100.00%    100.00% |           0      0.00%    100.00% |           0      0.00%    100.00% |           0      0.00%    100.00% |           0      0.00%    100.00% |           0      0.00%    100.00% |           0      0.00%    100.00%
system.ruby.L1Cache_Controller.M.Ifetch::total      6663575                      
system.ruby.L1Cache_Controller.M.Store   |      844430     99.86%     99.86% |         283      0.03%     99.90% |         300      0.04%     99.93% |         282      0.03%     99.97% |         293      0.03%    100.00% |           0      0.00%    100.00% |           0      0.00%    100.00%
system.ruby.L1Cache_Controller.M.Store::total       845588                      
system.ruby.L1Cache_Controller.M.Fwd_GETX |         172     16.15%     16.15% |         213     20.00%     36.15% |         211     19.81%     55.96% |         217     20.38%     76.34% |         210     19.72%     96.06% |           0      0.00%     96.06% |          42      3.94%    100.00%
system.ruby.L1Cache_Controller.M.Fwd_GETX::total         1065                      
system.ruby.L1Cache_Controller.M.Replacement |        3576     76.54%     76.54% |           0      0.00%     76.54% |           0      0.00%     76.54% |           0      0.00%     76.54% |           0      0.00%     76.54% |           0      0.00%     76.54% |        1096     23.46%    100.00%
system.ruby.L1Cache_Controller.M.Replacement::total         4672                      
system.ruby.L1Cache_Controller.MI.Writeback_Ack |        3576     76.54%     76.54% |           0      0.00%     76.54% |           0      0.00%     76.54% |           0      0.00%     76.54% |           0      0.00%     76.54% |           0      0.00%     76.54% |        1096     23.46%    100.00%
system.ruby.L1Cache_Controller.MI.Writeback_Ack::total         4672                      
system.ruby.L1Cache_Controller.IS.Data   |        3128     67.94%     67.94% |         223      4.84%     72.78% |         228      4.95%     77.74% |         223      4.84%     82.58% |         225      4.89%     87.47% |           0      0.00%     87.47% |         577     12.53%    100.00%
system.ruby.L1Cache_Controller.IS.Data::total         4604                      
system.ruby.L1Cache_Controller.IM.Data   |        1119     62.34%     62.34% |          25      1.39%     63.73% |          22      1.23%     64.96% |          26      1.45%     66.41% |          27      1.50%     67.91% |           0      0.00%     67.91% |         576     32.09%    100.00%
system.ruby.L1Cache_Controller.IM.Data::total         1795                      

---------- End Simulation Statistics   ----------
