
---------- Begin Simulation Statistics ----------
sim_seconds                                  0.017922                       # Number of seconds simulated
sim_ticks                                 17921937500                       # Number of ticks simulated
final_tick                                17921937500                       # Number of ticks from beginning of simulation (restored from checkpoints and never reset)
sim_freq                                 1000000000000                       # Frequency of simulated ticks
host_inst_rate                                 120453                       # Simulator instruction rate (inst/s)
host_op_rate                                   230117                       # Simulator op (including micro ops) rate (op/s)
host_tick_rate                              435202184                       # Simulator tick rate (ticks/s)
host_mem_usage                                2399992                       # Number of bytes of host memory used
host_seconds                                    41.18                       # Real time elapsed on the host
sim_insts                                     4960342                       # Number of instructions simulated
sim_ops                                       9476372                       # Number of ops (including micro ops) simulated
system.voltage_domain.voltage                       1                       # Voltage in Volts
system.clk_domain.clock                          1000                       # Clock period in ticks
system.mem_ctrls.bytes_read::gpu.shader_cores0.data        34944                       # Number of bytes read from this memory
system.mem_ctrls.bytes_read::gpu.shader_cores0.inst          288                       # Number of bytes read from this memory
system.mem_ctrls.bytes_read::gpu.shader_cores1.data        35584                       # Number of bytes read from this memory
system.mem_ctrls.bytes_read::gpu.shader_cores1.inst          312                       # Number of bytes read from this memory
system.mem_ctrls.bytes_read::gpu.shader_cores2.data        34944                       # Number of bytes read from this memory
system.mem_ctrls.bytes_read::gpu.shader_cores2.inst          288                       # Number of bytes read from this memory
system.mem_ctrls.bytes_read::gpu.shader_cores3.data        34944                       # Number of bytes read from this memory
system.mem_ctrls.bytes_read::gpu.shader_cores3.inst          288                       # Number of bytes read from this memory
system.mem_ctrls.bytes_read::gpu.ce             73052                       # Number of bytes read from this memory
system.mem_ctrls.bytes_read::cpu.inst        53320888                       # Number of bytes read from this memory
system.mem_ctrls.bytes_read::cpu.data         7972111                       # Number of bytes read from this memory
system.mem_ctrls.bytes_read::total           61507643                       # Number of bytes read from this memory
system.mem_ctrls.bytes_inst_read::gpu.shader_cores0.inst          288                       # Number of instructions bytes read from this memory
system.mem_ctrls.bytes_inst_read::gpu.shader_cores1.inst          312                       # Number of instructions bytes read from this memory
system.mem_ctrls.bytes_inst_read::gpu.shader_cores2.inst          288                       # Number of instructions bytes read from this memory
system.mem_ctrls.bytes_inst_read::gpu.shader_cores3.inst          288                       # Number of instructions bytes read from this memory
system.mem_ctrls.bytes_inst_read::cpu.inst     53320888                       # Number of instructions bytes read from this memory
system.mem_ctrls.bytes_inst_read::total      53322064                       # Number of instructions bytes read from this memory
system.mem_ctrls.bytes_written::gpu.shader_cores0.data        12544                       # Number of bytes written to this memory
system.mem_ctrls.bytes_written::gpu.shader_cores1.data        12672                       # Number of bytes written to this memory
system.mem_ctrls.bytes_written::gpu.shader_cores2.data        12544                       # Number of bytes written to this memory
system.mem_ctrls.bytes_written::gpu.shader_cores3.data        12544                       # Number of bytes written to this memory
system.mem_ctrls.bytes_written::gpu.ce          73052                       # Number of bytes written to this memory
system.mem_ctrls.bytes_written::cpu.data      4969927                       # Number of bytes written to this memory
system.mem_ctrls.bytes_written::total         5093283                       # Number of bytes written to this memory
system.mem_ctrls.num_reads::gpu.shader_cores0.data          422                       # Number of read requests responded to by this memory
system.mem_ctrls.num_reads::gpu.shader_cores0.inst           12                       # Number of read requests responded to by this memory
system.mem_ctrls.num_reads::gpu.shader_cores1.data          427                       # Number of read requests responded to by this memory
system.mem_ctrls.num_reads::gpu.shader_cores1.inst           13                       # Number of read requests responded to by this memory
system.mem_ctrls.num_reads::gpu.shader_cores2.data          422                       # Number of read requests responded to by this memory
system.mem_ctrls.num_reads::gpu.shader_cores2.inst           12                       # Number of read requests responded to by this memory
system.mem_ctrls.num_reads::gpu.shader_cores3.data          422                       # Number of read requests responded to by this memory
system.mem_ctrls.num_reads::gpu.shader_cores3.inst           12                       # Number of read requests responded to by this memory
system.mem_ctrls.num_reads::gpu.ce                577                       # Number of read requests responded to by this memory
system.mem_ctrls.num_reads::cpu.inst          6665111                       # Number of read requests responded to by this memory
system.mem_ctrls.num_reads::cpu.data          1297860                       # Number of read requests responded to by this memory
system.mem_ctrls.num_reads::total             7965290                       # Number of read requests responded to by this memory
system.mem_ctrls.num_writes::gpu.shader_cores0.data          314                       # Number of write requests responded to by this memory
system.mem_ctrls.num_writes::gpu.shader_cores1.data          316                       # Number of write requests responded to by this memory
system.mem_ctrls.num_writes::gpu.shader_cores2.data          314                       # Number of write requests responded to by this memory
system.mem_ctrls.num_writes::gpu.shader_cores3.data          314                       # Number of write requests responded to by this memory
system.mem_ctrls.num_writes::gpu.ce               576                       # Number of write requests responded to by this memory
system.mem_ctrls.num_writes::cpu.data          788149                       # Number of write requests responded to by this memory
system.mem_ctrls.num_writes::total             789983                       # Number of write requests responded to by this memory
system.mem_ctrls.bw_read::gpu.shader_cores0.data      1949789                       # Total read bandwidth from this memory (bytes/s)
system.mem_ctrls.bw_read::gpu.shader_cores0.inst        16070                       # Total read bandwidth from this memory (bytes/s)
system.mem_ctrls.bw_read::gpu.shader_cores1.data      1985500                       # Total read bandwidth from this memory (bytes/s)
system.mem_ctrls.bw_read::gpu.shader_cores1.inst        17409                       # Total read bandwidth from this memory (bytes/s)
system.mem_ctrls.bw_read::gpu.shader_cores2.data      1949789                       # Total read bandwidth from this memory (bytes/s)
system.mem_ctrls.bw_read::gpu.shader_cores2.inst        16070                       # Total read bandwidth from this memory (bytes/s)
system.mem_ctrls.bw_read::gpu.shader_cores3.data      1949789                       # Total read bandwidth from this memory (bytes/s)
system.mem_ctrls.bw_read::gpu.shader_cores3.inst        16070                       # Total read bandwidth from this memory (bytes/s)
system.mem_ctrls.bw_read::gpu.ce              4076122                       # Total read bandwidth from this memory (bytes/s)
system.mem_ctrls.bw_read::cpu.inst         2975174308                       # Total read bandwidth from this memory (bytes/s)
system.mem_ctrls.bw_read::cpu.data          444824171                       # Total read bandwidth from this memory (bytes/s)
system.mem_ctrls.bw_read::total            3431975086                       # Total read bandwidth from this memory (bytes/s)
system.mem_ctrls.bw_inst_read::gpu.shader_cores0.inst        16070                       # Instruction read bandwidth from this memory (bytes/s)
system.mem_ctrls.bw_inst_read::gpu.shader_cores1.inst        17409                       # Instruction read bandwidth from this memory (bytes/s)
system.mem_ctrls.bw_inst_read::gpu.shader_cores2.inst        16070                       # Instruction read bandwidth from this memory (bytes/s)
system.mem_ctrls.bw_inst_read::gpu.shader_cores3.inst        16070                       # Instruction read bandwidth from this memory (bytes/s)
system.mem_ctrls.bw_inst_read::cpu.inst    2975174308                       # Instruction read bandwidth from this memory (bytes/s)
system.mem_ctrls.bw_inst_read::total       2975239926                       # Instruction read bandwidth from this memory (bytes/s)
system.mem_ctrls.bw_write::gpu.shader_cores0.data       699924                       # Write bandwidth from this memory (bytes/s)
system.mem_ctrls.bw_write::gpu.shader_cores1.data       707066                       # Write bandwidth from this memory (bytes/s)
system.mem_ctrls.bw_write::gpu.shader_cores2.data       699924                       # Write bandwidth from this memory (bytes/s)
system.mem_ctrls.bw_write::gpu.shader_cores3.data       699924                       # Write bandwidth from this memory (bytes/s)
system.mem_ctrls.bw_write::gpu.ce             4076122                       # Write bandwidth from this memory (bytes/s)
system.mem_ctrls.bw_write::cpu.data         277309694                       # Write bandwidth from this memory (bytes/s)
system.mem_ctrls.bw_write::total            284192655                       # Write bandwidth from this memory (bytes/s)
system.mem_ctrls.bw_total::gpu.shader_cores0.data      2649714                       # Total bandwidth to/from this memory (bytes/s)
system.mem_ctrls.bw_total::gpu.shader_cores0.inst        16070                       # Total bandwidth to/from this memory (bytes/s)
system.mem_ctrls.bw_total::gpu.shader_cores1.data      2692566                       # Total bandwidth to/from this memory (bytes/s)
system.mem_ctrls.bw_total::gpu.shader_cores1.inst        17409                       # Total bandwidth to/from this memory (bytes/s)
system.mem_ctrls.bw_total::gpu.shader_cores2.data      2649714                       # Total bandwidth to/from this memory (bytes/s)
system.mem_ctrls.bw_total::gpu.shader_cores2.inst        16070                       # Total bandwidth to/from this memory (bytes/s)
system.mem_ctrls.bw_total::gpu.shader_cores3.data      2649714                       # Total bandwidth to/from this memory (bytes/s)
system.mem_ctrls.bw_total::gpu.shader_cores3.inst        16070                       # Total bandwidth to/from this memory (bytes/s)
system.mem_ctrls.bw_total::gpu.ce             8152244                       # Total bandwidth to/from this memory (bytes/s)
system.mem_ctrls.bw_total::cpu.inst        2975174308                       # Total bandwidth to/from this memory (bytes/s)
system.mem_ctrls.bw_total::cpu.data         722133865                       # Total bandwidth to/from this memory (bytes/s)
system.mem_ctrls.bw_total::total           3716167741                       # Total bandwidth to/from this memory (bytes/s)
system.ruby_clk_domain.clock                      500                       # Clock period in ticks
system.ruby.delayHist::bucket_size                 16                       # delay histogram for all message
system.ruby.delayHist::max_bucket                 159                       # delay histogram for all message
system.ruby.delayHist::samples                  11676                       # delay histogram for all message
system.ruby.delayHist::mean                  1.347722                       # delay histogram for all message
system.ruby.delayHist::stdev                 6.243388                       # delay histogram for all message
system.ruby.delayHist                    |       11262     96.45%     96.45% |         337      2.89%     99.34% |          46      0.39%     99.73% |          11      0.09%     99.83% |           9      0.08%     99.91% |           6      0.05%     99.96% |           2      0.02%     99.97% |           1      0.01%     99.98% |           2      0.02%    100.00% |           0      0.00%    100.00% # delay histogram for all message
system.ruby.delayHist::total                    11676                       # delay histogram for all message
system.ruby.outstanding_req_hist::bucket_size            8                      
system.ruby.outstanding_req_hist::max_bucket           79                      
system.ruby.outstanding_req_hist::samples      8755274                      
system.ruby.outstanding_req_hist::mean       1.009058                      
system.ruby.outstanding_req_hist::gmean      1.000933                      
system.ruby.outstanding_req_hist::stdev      0.674841                      
system.ruby.outstanding_req_hist         |     8753359     99.98%     99.98% |         314      0.00%     99.98% |         229      0.00%     99.98% |         367      0.00%     99.99% |          78      0.00%     99.99% |          36      0.00%     99.99% |          37      0.00%     99.99% |          48      0.00%     99.99% |         806      0.01%    100.00% |           0      0.00%    100.00%
system.ruby.outstanding_req_hist::total       8755274                      
system.ruby.latency_hist::bucket_size             512                      
system.ruby.latency_hist::max_bucket             5119                      
system.ruby.latency_hist::samples             8755273                      
system.ruby.latency_hist::mean               3.278934                      
system.ruby.latency_hist::gmean              3.008637                      
system.ruby.latency_hist::stdev             15.992898                      
system.ruby.latency_hist                 |     8754023     99.99%     99.99% |         359      0.00%     99.99% |         620      0.01%    100.00% |         250      0.00%    100.00% |          20      0.00%    100.00% |           1      0.00%    100.00% |           0      0.00%    100.00% |           0      0.00%    100.00% |           0      0.00%    100.00% |           0      0.00%    100.00%
system.ruby.latency_hist::total               8755273                      
system.ruby.hit_latency_hist::bucket_size            1                      
system.ruby.hit_latency_hist::max_bucket            9                      
system.ruby.hit_latency_hist::samples         8749104                      
system.ruby.hit_latency_hist::mean           2.999523                      
system.ruby.hit_latency_hist::gmean          2.999215                      
system.ruby.hit_latency_hist::stdev          0.030871                      
system.ruby.hit_latency_hist             |           0      0.00%      0.00% |        2085      0.02%      0.02% |           0      0.00%      0.02% |     8747019     99.98%    100.00% |           0      0.00%    100.00% |           0      0.00%    100.00% |           0      0.00%    100.00% |           0      0.00%    100.00% |           0      0.00%    100.00% |           0      0.00%    100.00%
system.ruby.hit_latency_hist::total           8749104                      
system.ruby.miss_latency_hist::bucket_size          512                      
system.ruby.miss_latency_hist::max_bucket         5119                      
system.ruby.miss_latency_hist::samples           6169                      
system.ruby.miss_latency_hist::mean        399.549846                      
system.ruby.miss_latency_hist::gmean       257.298639                      
system.ruby.miss_latency_hist::stdev       453.754168                      
system.ruby.miss_latency_hist            |        4919     79.74%     79.74% |         359      5.82%     85.56% |         620     10.05%     95.61% |         250      4.05%     99.66% |          20      0.32%     99.98% |           1      0.02%    100.00% |           0      0.00%    100.00% |           0      0.00%    100.00% |           0      0.00%    100.00% |           0      0.00%    100.00%
system.ruby.miss_latency_hist::total             6169                      
system.ruby.L1Cache.incomplete_times              978                      
system.ruby.Directory.incomplete_times           5190                      
system.ruby.l1_cntrl_ce.cacheMemory.demand_hits            0                       # Number of cache demand hits
system.ruby.l1_cntrl_ce.cacheMemory.demand_misses         1153                       # Number of cache demand misses
system.ruby.l1_cntrl_ce.cacheMemory.demand_accesses         1153                       # Number of cache demand accesses
system.ruby.l1_cntrl_ce.fully_busy_cycles            2                       # cycles for which number of transistions == max transitions
system.ruby.l1_cntrl0.cacheMemory.demand_hits      8747019                       # Number of cache demand hits
system.ruby.l1_cntrl0.cacheMemory.demand_misses         4101                       # Number of cache demand misses
system.ruby.l1_cntrl0.cacheMemory.demand_accesses      8751120                       # Number of cache demand accesses
system.ruby.network.routers0.percent_links_utilized     0.096707                      
system.ruby.network.routers0.msg_count.Control::2         4101                      
system.ruby.network.routers0.msg_count.Data::2         3433                      
system.ruby.network.routers0.msg_count.Response_Data::4         4270                      
system.ruby.network.routers0.msg_count.Writeback_Control::3         3602                      
system.ruby.network.routers0.msg_bytes.Control::2        32808                      
system.ruby.network.routers0.msg_bytes.Data::2       466888                      
system.ruby.network.routers0.msg_bytes.Response_Data::4       580720                      
system.ruby.network.routers0.msg_bytes.Writeback_Control::3        28816                      
system.ruby.dir_cntrl0.memBuffer.clk_domain.clock         2500                       # Clock period in ticks
system.ruby.dir_cntrl0.memBuffer.memReq          9720                       # Total number of memory requests
system.ruby.dir_cntrl0.memBuffer.memRead         5191                       # Number of memory reads
system.ruby.dir_cntrl0.memBuffer.memWrite         4529                       # Number of memory writes
system.ruby.dir_cntrl0.memBuffer.memRefresh        44554                       # Number of memory refreshes
system.ruby.dir_cntrl0.memBuffer.memWaitCycles        74806                       # Delay stalled at the head of the bank queue
system.ruby.dir_cntrl0.memBuffer.memInputQ         8685                       # Delay in the input queue
system.ruby.dir_cntrl0.memBuffer.memBankQ        33037                       # Delay behind the head of the bank queue
system.ruby.dir_cntrl0.memBuffer.totalStalls       116528                       # Total number of stall cycles
system.ruby.dir_cntrl0.memBuffer.stallsPerReq    11.988477                       # Expected number of stall cycles per request
system.ruby.dir_cntrl0.memBuffer.memBankBusy        42449                       # memory stalls due to busy bank
system.ruby.dir_cntrl0.memBuffer.memBusBusy        12126                       # memory stalls due to busy bus
system.ruby.dir_cntrl0.memBuffer.memReadWriteBusy         2252                       # memory stalls due to read write turnaround
system.ruby.dir_cntrl0.memBuffer.memDataBusBusy         1955                       # memory stalls due to read read turnaround
system.ruby.dir_cntrl0.memBuffer.memArbWait         8578                       # memory stalls due to arbitration
system.ruby.dir_cntrl0.memBuffer.memNotOld         7446                       # memory stalls due to anti starvation
system.ruby.dir_cntrl0.memBuffer.memBankCount |         218      2.24%      2.24% |         209      2.15%      4.39% |         442      4.55%      8.94% |         222      2.28%     11.22% |         326      3.35%     14.58% |         174      1.79%     16.37% |         346      3.56%     19.93% |         343      3.53%     23.46% |         178      1.83%     25.29% |         552      5.68%     30.97% |         192      1.98%     32.94% |         162      1.67%     34.61% |         168      1.73%     36.34% |         178      1.83%     38.17% |         179      1.84%     40.01% |        1710     17.59%     57.60% |         226      2.33%     59.93% |         398      4.09%     64.02% |         188      1.93%     65.96% |         198      2.04%     67.99% |         171      1.76%     69.75% |         164      1.69%     71.44% |         194      2.00%     73.44% |         200      2.06%     75.49% |         250      2.57%     78.07% |         210      2.16%     80.23% |         198      2.04%     82.26% |         678      6.98%     89.24% |         446      4.59%     93.83% |         208      2.14%     95.97% |         196      2.02%     97.98% |         196      2.02%    100.00% # Number of accesses per bank
system.ruby.dir_cntrl0.memBuffer.memBankCount::total         9720                       # Number of accesses per bank
system.ruby.network.routers1.percent_links_utilized     0.123393                      
system.ruby.network.routers1.msg_count.Control::2         6169                      
system.ruby.network.routers1.msg_count.Data::2         4529                      
system.ruby.network.routers1.msg_count.Response_Data::4         5191                      
system.ruby.network.routers1.msg_count.Writeback_Control::3         5507                      
system.ruby.network.routers1.msg_bytes.Control::2        49352                      
system.ruby.network.routers1.msg_bytes.Data::2       615944                      
system.ruby.network.routers1.msg_bytes.Response_Data::4       705976                      
system.ruby.network.routers1.msg_bytes.Writeback_Control::3        44056                      
system.ruby.l1_cntrl_sp00.cacheMemory.demand_hits          547                       # Number of cache demand hits
system.ruby.l1_cntrl_sp00.cacheMemory.demand_misses          201                       # Number of cache demand misses
system.ruby.l1_cntrl_sp00.cacheMemory.demand_accesses          748                       # Number of cache demand accesses
system.ruby.network.routers2.percent_links_utilized     0.004633                      
system.ruby.network.routers2.msg_count.Control::2          201                      
system.ruby.network.routers2.msg_count.Response_Data::4          369                      
system.ruby.network.routers2.msg_count.Writeback_Control::3          168                      
system.ruby.network.routers2.msg_bytes.Control::2         1608                      
system.ruby.network.routers2.msg_bytes.Response_Data::4        50184                      
system.ruby.network.routers2.msg_bytes.Writeback_Control::3         1344                      
system.ruby.l1_cntrl_sp01.cacheMemory.demand_hits          509                       # Number of cache demand hits
system.ruby.l1_cntrl_sp01.cacheMemory.demand_misses          247                       # Number of cache demand misses
system.ruby.l1_cntrl_sp01.cacheMemory.demand_accesses          756                       # Number of cache demand accesses
system.ruby.network.routers3.percent_links_utilized     0.005750                      
system.ruby.network.routers3.msg_count.Control::2          247                      
system.ruby.network.routers3.msg_count.Response_Data::4          458                      
system.ruby.network.routers3.msg_count.Writeback_Control::3          211                      
system.ruby.network.routers3.msg_bytes.Control::2         1976                      
system.ruby.network.routers3.msg_bytes.Response_Data::4        62288                      
system.ruby.network.routers3.msg_bytes.Writeback_Control::3         1688                      
system.ruby.l1_cntrl_sp02.cacheMemory.demand_hits          537                       # Number of cache demand hits
system.ruby.l1_cntrl_sp02.cacheMemory.demand_misses          211                       # Number of cache demand misses
system.ruby.l1_cntrl_sp02.cacheMemory.demand_accesses          748                       # Number of cache demand accesses
system.ruby.network.routers4.percent_links_utilized     0.004796                      
system.ruby.network.routers4.msg_count.Control::2          211                      
system.ruby.network.routers4.msg_count.Response_Data::4          382                      
system.ruby.network.routers4.msg_count.Writeback_Control::3          171                      
system.ruby.network.routers4.msg_bytes.Control::2         1688                      
system.ruby.network.routers4.msg_bytes.Response_Data::4        51952                      
system.ruby.network.routers4.msg_bytes.Writeback_Control::3         1368                      
system.ruby.l1_cntrl_sp03.cacheMemory.demand_hits          492                       # Number of cache demand hits
system.ruby.l1_cntrl_sp03.cacheMemory.demand_misses          256                       # Number of cache demand misses
system.ruby.l1_cntrl_sp03.cacheMemory.demand_accesses          748                       # Number of cache demand accesses
system.ruby.network.routers5.percent_links_utilized     0.005938                      
system.ruby.network.routers5.msg_count.Control::2          256                      
system.ruby.network.routers5.msg_count.Response_Data::4          473                      
system.ruby.network.routers5.msg_count.Writeback_Control::3          217                      
system.ruby.network.routers5.msg_bytes.Control::2         2048                      
system.ruby.network.routers5.msg_bytes.Response_Data::4        64328                      
system.ruby.network.routers5.msg_bytes.Writeback_Control::3         1736                      
system.ruby.l1_pw_cntrl.cacheMemory.demand_hits            0                       # Number of cache demand hits
system.ruby.l1_pw_cntrl.cacheMemory.demand_misses            0                       # Number of cache demand misses
system.ruby.l1_pw_cntrl.cacheMemory.demand_accesses            0                       # Number of cache demand accesses
system.ruby.network.routers6.percent_links_utilized            0                      
system.ruby.network.routers7.percent_links_utilized     0.028762                      
system.ruby.network.routers7.msg_count.Control::2         1153                      
system.ruby.network.routers7.msg_count.Data::2         1096                      
system.ruby.network.routers7.msg_count.Response_Data::4         1195                      
system.ruby.network.routers7.msg_count.Writeback_Control::3         1138                      
system.ruby.network.routers7.msg_bytes.Control::2         9224                      
system.ruby.network.routers7.msg_bytes.Data::2       149056                      
system.ruby.network.routers7.msg_bytes.Response_Data::4       162520                      
system.ruby.network.routers7.msg_bytes.Writeback_Control::3         9104                      
system.ruby.network.routers8.percent_links_utilized     0.033747                      
system.ruby.network.routers8.msg_count.Control::2         6169                      
system.ruby.network.routers8.msg_count.Data::2         4529                      
system.ruby.network.routers8.msg_count.Response_Data::4         6169                      
system.ruby.network.routers8.msg_count.Writeback_Control::3         5507                      
system.ruby.network.routers8.msg_bytes.Control::2        49352                      
system.ruby.network.routers8.msg_bytes.Data::2       615944                      
system.ruby.network.routers8.msg_bytes.Response_Data::4       838984                      
system.ruby.network.routers8.msg_bytes.Writeback_Control::3        44056                      
system.ruby.network.msg_count.Control           18507                      
system.ruby.network.msg_count.Data              13587                      
system.ruby.network.msg_count.Response_Data        18507                      
system.ruby.network.msg_count.Writeback_Control        16521                      
system.ruby.network.msg_byte.Control           148056                      
system.ruby.network.msg_byte.Data             1847832                      
system.ruby.network.msg_byte.Response_Data      2516952                      
system.ruby.network.msg_byte.Writeback_Control       132168                      
system.ruby.memctrl_clk_domain.clock             1500                       # Clock period in ticks
system.cpu_voltage_domain.voltage                   1                       # Voltage in Volts
system.gpu.voltage_domain.voltage                   1                       # Voltage in Volts
system.gpu.clk_domain.clock                      1429                       # Clock period in ticks
system.gpu.shader_mmu.numPagefaults                 0                       # Number of Pagefaults
system.gpu.shader_mmu.numPagewalks                169                       # Number of Pagewalks
system.gpu.shader_mmu.totalRequests               169                       # Total number of requests
system.gpu.shader_mmu.retryFailures                 0                       # Times the retry walk after a pagefault failed
system.gpu.shader_mmu.l2hits                        0                       # Hits in the shared L2
system.gpu.shader_mmu.prefetchHits                  0                       # Number of prefetch hits
system.gpu.shader_mmu.numPrefetches                 0                       # Number of prefetchs
system.gpu.shader_mmu.prefetchFaults                0                       # Number of faults caused by prefetches
system.gpu.shader_mmu.pagefaultLatency::samples            0                       # Latency to complete the pagefault
system.gpu.shader_mmu.pagefaultLatency::mean          nan                       # Latency to complete the pagefault
system.gpu.shader_mmu.pagefaultLatency::gmean          nan                       # Latency to complete the pagefault
system.gpu.shader_mmu.pagefaultLatency::stdev          nan                       # Latency to complete the pagefault
system.gpu.shader_mmu.pagefaultLatency::0            0                       # Latency to complete the pagefault
system.gpu.shader_mmu.pagefaultLatency::1            0                       # Latency to complete the pagefault
system.gpu.shader_mmu.pagefaultLatency::2            0                       # Latency to complete the pagefault
system.gpu.shader_mmu.pagefaultLatency::3            0                       # Latency to complete the pagefault
system.gpu.shader_mmu.pagefaultLatency::4            0                       # Latency to complete the pagefault
system.gpu.shader_mmu.pagefaultLatency::5            0                       # Latency to complete the pagefault
system.gpu.shader_mmu.pagefaultLatency::6            0                       # Latency to complete the pagefault
system.gpu.shader_mmu.pagefaultLatency::7            0                       # Latency to complete the pagefault
system.gpu.shader_mmu.pagefaultLatency::8            0                       # Latency to complete the pagefault
system.gpu.shader_mmu.pagefaultLatency::9            0                       # Latency to complete the pagefault
system.gpu.shader_mmu.pagefaultLatency::10            0                       # Latency to complete the pagefault
system.gpu.shader_mmu.pagefaultLatency::11            0                       # Latency to complete the pagefault
system.gpu.shader_mmu.pagefaultLatency::12            0                       # Latency to complete the pagefault
system.gpu.shader_mmu.pagefaultLatency::13            0                       # Latency to complete the pagefault
system.gpu.shader_mmu.pagefaultLatency::14            0                       # Latency to complete the pagefault
system.gpu.shader_mmu.pagefaultLatency::15            0                       # Latency to complete the pagefault
system.gpu.shader_mmu.pagefaultLatency::16            0                       # Latency to complete the pagefault
system.gpu.shader_mmu.pagefaultLatency::17            0                       # Latency to complete the pagefault
system.gpu.shader_mmu.pagefaultLatency::18            0                       # Latency to complete the pagefault
system.gpu.shader_mmu.pagefaultLatency::19            0                       # Latency to complete the pagefault
system.gpu.shader_mmu.pagefaultLatency::20            0                       # Latency to complete the pagefault
system.gpu.shader_mmu.pagefaultLatency::21            0                       # Latency to complete the pagefault
system.gpu.shader_mmu.pagefaultLatency::22            0                       # Latency to complete the pagefault
system.gpu.shader_mmu.pagefaultLatency::23            0                       # Latency to complete the pagefault
system.gpu.shader_mmu.pagefaultLatency::24            0                       # Latency to complete the pagefault
system.gpu.shader_mmu.pagefaultLatency::25            0                       # Latency to complete the pagefault
system.gpu.shader_mmu.pagefaultLatency::26            0                       # Latency to complete the pagefault
system.gpu.shader_mmu.pagefaultLatency::27            0                       # Latency to complete the pagefault
system.gpu.shader_mmu.pagefaultLatency::28            0                       # Latency to complete the pagefault
system.gpu.shader_mmu.pagefaultLatency::29            0                       # Latency to complete the pagefault
system.gpu.shader_mmu.pagefaultLatency::30            0                       # Latency to complete the pagefault
system.gpu.shader_mmu.pagefaultLatency::31            0                       # Latency to complete the pagefault
system.gpu.shader_mmu.pagefaultLatency::total            0                       # Latency to complete the pagefault
system.gpu.shader_mmu.concurrentWalks::samples          169                       # Number of outstanding walks
system.gpu.shader_mmu.concurrentWalks::mean            0                       # Number of outstanding walks
system.gpu.shader_mmu.concurrentWalks::gmean            0                       # Number of outstanding walks
system.gpu.shader_mmu.concurrentWalks::stdev            0                       # Number of outstanding walks
system.gpu.shader_mmu.concurrentWalks::0          169    100.00%    100.00% # Number of outstanding walks
system.gpu.shader_mmu.concurrentWalks::1            0      0.00%    100.00% # Number of outstanding walks
system.gpu.shader_mmu.concurrentWalks::2            0      0.00%    100.00% # Number of outstanding walks
system.gpu.shader_mmu.concurrentWalks::3            0      0.00%    100.00% # Number of outstanding walks
system.gpu.shader_mmu.concurrentWalks::4            0      0.00%    100.00% # Number of outstanding walks
system.gpu.shader_mmu.concurrentWalks::5            0      0.00%    100.00% # Number of outstanding walks
system.gpu.shader_mmu.concurrentWalks::6            0      0.00%    100.00% # Number of outstanding walks
system.gpu.shader_mmu.concurrentWalks::7            0      0.00%    100.00% # Number of outstanding walks
system.gpu.shader_mmu.concurrentWalks::8            0      0.00%    100.00% # Number of outstanding walks
system.gpu.shader_mmu.concurrentWalks::9            0      0.00%    100.00% # Number of outstanding walks
system.gpu.shader_mmu.concurrentWalks::10            0      0.00%    100.00% # Number of outstanding walks
system.gpu.shader_mmu.concurrentWalks::11            0      0.00%    100.00% # Number of outstanding walks
system.gpu.shader_mmu.concurrentWalks::12            0      0.00%    100.00% # Number of outstanding walks
system.gpu.shader_mmu.concurrentWalks::13            0      0.00%    100.00% # Number of outstanding walks
system.gpu.shader_mmu.concurrentWalks::14            0      0.00%    100.00% # Number of outstanding walks
system.gpu.shader_mmu.concurrentWalks::15            0      0.00%    100.00% # Number of outstanding walks
system.gpu.shader_mmu.concurrentWalks::total          169                       # Number of outstanding walks
system.gpu.shader_mmu.pagewalkLatency::samples          169                       # Latency to complete the pagewalk
system.gpu.shader_mmu.pagewalkLatency::mean            0                       # Latency to complete the pagewalk
system.gpu.shader_mmu.pagewalkLatency::gmean            0                       # Latency to complete the pagewalk
system.gpu.shader_mmu.pagewalkLatency::stdev            0                       # Latency to complete the pagewalk
system.gpu.shader_mmu.pagewalkLatency::0          169    100.00%    100.00% # Latency to complete the pagewalk
system.gpu.shader_mmu.pagewalkLatency::1            0      0.00%    100.00% # Latency to complete the pagewalk
system.gpu.shader_mmu.pagewalkLatency::2            0      0.00%    100.00% # Latency to complete the pagewalk
system.gpu.shader_mmu.pagewalkLatency::3            0      0.00%    100.00% # Latency to complete the pagewalk
system.gpu.shader_mmu.pagewalkLatency::4            0      0.00%    100.00% # Latency to complete the pagewalk
system.gpu.shader_mmu.pagewalkLatency::5            0      0.00%    100.00% # Latency to complete the pagewalk
system.gpu.shader_mmu.pagewalkLatency::6            0      0.00%    100.00% # Latency to complete the pagewalk
system.gpu.shader_mmu.pagewalkLatency::7            0      0.00%    100.00% # Latency to complete the pagewalk
system.gpu.shader_mmu.pagewalkLatency::8            0      0.00%    100.00% # Latency to complete the pagewalk
system.gpu.shader_mmu.pagewalkLatency::9            0      0.00%    100.00% # Latency to complete the pagewalk
system.gpu.shader_mmu.pagewalkLatency::10            0      0.00%    100.00% # Latency to complete the pagewalk
system.gpu.shader_mmu.pagewalkLatency::11            0      0.00%    100.00% # Latency to complete the pagewalk
system.gpu.shader_mmu.pagewalkLatency::12            0      0.00%    100.00% # Latency to complete the pagewalk
system.gpu.shader_mmu.pagewalkLatency::13            0      0.00%    100.00% # Latency to complete the pagewalk
system.gpu.shader_mmu.pagewalkLatency::14            0      0.00%    100.00% # Latency to complete the pagewalk
system.gpu.shader_mmu.pagewalkLatency::15            0      0.00%    100.00% # Latency to complete the pagewalk
system.gpu.shader_mmu.pagewalkLatency::16            0      0.00%    100.00% # Latency to complete the pagewalk
system.gpu.shader_mmu.pagewalkLatency::17            0      0.00%    100.00% # Latency to complete the pagewalk
system.gpu.shader_mmu.pagewalkLatency::18            0      0.00%    100.00% # Latency to complete the pagewalk
system.gpu.shader_mmu.pagewalkLatency::19            0      0.00%    100.00% # Latency to complete the pagewalk
system.gpu.shader_mmu.pagewalkLatency::20            0      0.00%    100.00% # Latency to complete the pagewalk
system.gpu.shader_mmu.pagewalkLatency::21            0      0.00%    100.00% # Latency to complete the pagewalk
system.gpu.shader_mmu.pagewalkLatency::22            0      0.00%    100.00% # Latency to complete the pagewalk
system.gpu.shader_mmu.pagewalkLatency::23            0      0.00%    100.00% # Latency to complete the pagewalk
system.gpu.shader_mmu.pagewalkLatency::24            0      0.00%    100.00% # Latency to complete the pagewalk
system.gpu.shader_mmu.pagewalkLatency::25            0      0.00%    100.00% # Latency to complete the pagewalk
system.gpu.shader_mmu.pagewalkLatency::26            0      0.00%    100.00% # Latency to complete the pagewalk
system.gpu.shader_mmu.pagewalkLatency::27            0      0.00%    100.00% # Latency to complete the pagewalk
system.gpu.shader_mmu.pagewalkLatency::28            0      0.00%    100.00% # Latency to complete the pagewalk
system.gpu.shader_mmu.pagewalkLatency::29            0      0.00%    100.00% # Latency to complete the pagewalk
system.gpu.shader_mmu.pagewalkLatency::30            0      0.00%    100.00% # Latency to complete the pagewalk
system.gpu.shader_mmu.pagewalkLatency::31            0      0.00%    100.00% # Latency to complete the pagewalk
system.gpu.shader_mmu.pagewalkLatency::total          169                       # Latency to complete the pagewalk
system.gpu.kernels_completed                        2                       # Number of kernels completed
system.gpu.shader_cores0.itb.hits                   0                       # Number of hits in this TLB
system.gpu.shader_cores0.itb.misses                 0                       # Number of misses in this TLB
system.gpu.shader_cores0.itb.hitRate              nan                       # Hit rate for this TLB
system.gpu.shader_cores0.local_loads                0                       # Number of loads from local space
system.gpu.shader_cores0.local_stores               0                       # Number of stores to local space
system.gpu.shader_cores0.shared_loads            5056                       # Number of loads from shared space
system.gpu.shader_cores0.shared_stores           3072                       # Number of stores to shared space
system.gpu.shader_cores0.param_kernel_loads         7296                       # Number of loads from kernel parameter space
system.gpu.shader_cores0.param_local_loads            0                       # Number of loads from local parameter space
system.gpu.shader_cores0.param_local_stores            0                       # Number of stores to local parameter space
system.gpu.shader_cores0.const_loads                0                       # Number of loads from constant space
system.gpu.shader_cores0.tex_loads                  0                       # Number of loads from texture space
system.gpu.shader_cores0.global_loads            8256                       # Number of loads from global space
system.gpu.shader_cores0.global_stores           3136                       # Number of stores to global space
system.gpu.shader_cores0.surf_loads                 0                       # Number of loads from surface space
system.gpu.shader_cores0.generic_loads              0                       # Number of loads from generic spaces (global, shared, local)
system.gpu.shader_cores0.generic_stores             0                       # Number of stores to generic spaces (global, shared, local)
system.gpu.shader_cores0.inst_cache_requests           12                       # Number of instruction cache requests sent
system.gpu.shader_cores0.inst_cache_retries            0                       # Number of instruction cache retries
system.gpu.shader_cores0.inst_counts::0             0                       # Inst counts: 1: ALU, 2: MAD, 3: CTRL, 4: SFU, 5: MEM, 6: TEX, 7: NOP
system.gpu.shader_cores0.inst_counts::1        130176                       # Inst counts: 1: ALU, 2: MAD, 3: CTRL, 4: SFU, 5: MEM, 6: TEX, 7: NOP
system.gpu.shader_cores0.inst_counts::2          2048                       # Inst counts: 1: ALU, 2: MAD, 3: CTRL, 4: SFU, 5: MEM, 6: TEX, 7: NOP
system.gpu.shader_cores0.inst_counts::3         20416                       # Inst counts: 1: ALU, 2: MAD, 3: CTRL, 4: SFU, 5: MEM, 6: TEX, 7: NOP
system.gpu.shader_cores0.inst_counts::4          6144                       # Inst counts: 1: ALU, 2: MAD, 3: CTRL, 4: SFU, 5: MEM, 6: TEX, 7: NOP
system.gpu.shader_cores0.inst_counts::5         26816                       # Inst counts: 1: ALU, 2: MAD, 3: CTRL, 4: SFU, 5: MEM, 6: TEX, 7: NOP
system.gpu.shader_cores0.inst_counts::6             0                       # Inst counts: 1: ALU, 2: MAD, 3: CTRL, 4: SFU, 5: MEM, 6: TEX, 7: NOP
system.gpu.shader_cores0.inst_counts::7             0                       # Inst counts: 1: ALU, 2: MAD, 3: CTRL, 4: SFU, 5: MEM, 6: TEX, 7: NOP
system.gpu.shader_cores0.activeCycles            8057                       # Number of cycles this shader was executing a CTA
system.gpu.shader_cores0.notStalledCycles         5920                       # Number of cycles this shader was actually executing at least one instance
system.gpu.shader_cores0.instInstances         185600                       # Total instructions executed by all PEs in the core
system.gpu.shader_cores0.instPerCycle       23.035869                       # Instruction instances per cycle
system.gpu.shader_cores0.kernels_completed            2                       # Number of kernels completed
system.gpu.shader_cores0.lsq.data_tlb.hits            0                       # Number of hits in this TLB
system.gpu.shader_cores0.lsq.data_tlb.misses            0                       # Number of misses in this TLB
system.gpu.shader_cores0.lsq.data_tlb.hitRate          nan                       # Hit rate for this TLB
system.gpu.shader_cores0.lsq.warpInstBufActive::samples      9828624                       # Histogram of number of active warp inst buffers at a given time
system.gpu.shader_cores0.lsq.warpInstBufActive::mean     7.420745                       # Histogram of number of active warp inst buffers at a given time
system.gpu.shader_cores0.lsq.warpInstBufActive::gmean          nan                       # Histogram of number of active warp inst buffers at a given time
system.gpu.shader_cores0.lsq.warpInstBufActive::stdev    10.535922                       # Histogram of number of active warp inst buffers at a given time
system.gpu.shader_cores0.lsq.warpInstBufActive::0      4981740     50.69%     50.69% # Histogram of number of active warp inst buffers at a given time
system.gpu.shader_cores0.lsq.warpInstBufActive::1       431566      4.39%     55.08% # Histogram of number of active warp inst buffers at a given time
system.gpu.shader_cores0.lsq.warpInstBufActive::2       276631      2.81%     57.89% # Histogram of number of active warp inst buffers at a given time
system.gpu.shader_cores0.lsq.warpInstBufActive::3       317715      3.23%     61.12% # Histogram of number of active warp inst buffers at a given time
system.gpu.shader_cores0.lsq.warpInstBufActive::4       246095      2.50%     63.63% # Histogram of number of active warp inst buffers at a given time
system.gpu.shader_cores0.lsq.warpInstBufActive::5       184521      1.88%     65.51% # Histogram of number of active warp inst buffers at a given time
system.gpu.shader_cores0.lsq.warpInstBufActive::6       223565      2.27%     67.78% # Histogram of number of active warp inst buffers at a given time
system.gpu.shader_cores0.lsq.warpInstBufActive::7        75182      0.76%     68.54% # Histogram of number of active warp inst buffers at a given time
system.gpu.shader_cores0.lsq.warpInstBufActive::8        54140      0.55%     69.10% # Histogram of number of active warp inst buffers at a given time
system.gpu.shader_cores0.lsq.warpInstBufActive::9        54119      0.55%     69.65% # Histogram of number of active warp inst buffers at a given time
system.gpu.shader_cores0.lsq.warpInstBufActive::10        53223      0.54%     70.19% # Histogram of number of active warp inst buffers at a given time
system.gpu.shader_cores0.lsq.warpInstBufActive::11        44743      0.46%     70.64% # Histogram of number of active warp inst buffers at a given time
system.gpu.shader_cores0.lsq.warpInstBufActive::12        43623      0.44%     71.09% # Histogram of number of active warp inst buffers at a given time
system.gpu.shader_cores0.lsq.warpInstBufActive::13        73582      0.75%     71.84% # Histogram of number of active warp inst buffers at a given time
system.gpu.shader_cores0.lsq.warpInstBufActive::14        53752      0.55%     72.38% # Histogram of number of active warp inst buffers at a given time
system.gpu.shader_cores0.lsq.warpInstBufActive::15       162623      1.65%     74.04% # Histogram of number of active warp inst buffers at a given time
system.gpu.shader_cores0.lsq.warpInstBufActive::16       528833      5.38%     79.42% # Histogram of number of active warp inst buffers at a given time
system.gpu.shader_cores0.lsq.warpInstBufActive::17        76229      0.78%     80.19% # Histogram of number of active warp inst buffers at a given time
system.gpu.shader_cores0.lsq.warpInstBufActive::18        66503      0.68%     80.87% # Histogram of number of active warp inst buffers at a given time
system.gpu.shader_cores0.lsq.warpInstBufActive::19       131788      1.34%     82.21% # Histogram of number of active warp inst buffers at a given time
system.gpu.shader_cores0.lsq.warpInstBufActive::20       127381      1.30%     83.51% # Histogram of number of active warp inst buffers at a given time
system.gpu.shader_cores0.lsq.warpInstBufActive::21        88132      0.90%     84.40% # Histogram of number of active warp inst buffers at a given time
system.gpu.shader_cores0.lsq.warpInstBufActive::22        65695      0.67%     85.07% # Histogram of number of active warp inst buffers at a given time
system.gpu.shader_cores0.lsq.warpInstBufActive::23       100220      1.02%     86.09% # Histogram of number of active warp inst buffers at a given time
system.gpu.shader_cores0.lsq.warpInstBufActive::24       103391      1.05%     87.14% # Histogram of number of active warp inst buffers at a given time
system.gpu.shader_cores0.lsq.warpInstBufActive::25       127157      1.29%     88.44% # Histogram of number of active warp inst buffers at a given time
system.gpu.shader_cores0.lsq.warpInstBufActive::26       133801      1.36%     89.80% # Histogram of number of active warp inst buffers at a given time
system.gpu.shader_cores0.lsq.warpInstBufActive::27       122564      1.25%     91.05% # Histogram of number of active warp inst buffers at a given time
system.gpu.shader_cores0.lsq.warpInstBufActive::28       184109      1.87%     92.92% # Histogram of number of active warp inst buffers at a given time
system.gpu.shader_cores0.lsq.warpInstBufActive::29       175377      1.78%     94.70% # Histogram of number of active warp inst buffers at a given time
system.gpu.shader_cores0.lsq.warpInstBufActive::30       118817      1.21%     95.91% # Histogram of number of active warp inst buffers at a given time
system.gpu.shader_cores0.lsq.warpInstBufActive::31       118930      1.21%     97.12% # Histogram of number of active warp inst buffers at a given time
system.gpu.shader_cores0.lsq.warpInstBufActive::32       276548      2.81%     99.94% # Histogram of number of active warp inst buffers at a given time
system.gpu.shader_cores0.lsq.warpInstBufActive::33         5820      0.06%     99.99% # Histogram of number of active warp inst buffers at a given time
system.gpu.shader_cores0.lsq.warpInstBufActive::34          509      0.01%    100.00% # Histogram of number of active warp inst buffers at a given time
system.gpu.shader_cores0.lsq.warpInstBufActive::35            0      0.00%    100.00% # Histogram of number of active warp inst buffers at a given time
system.gpu.shader_cores0.lsq.warpInstBufActive::36            0      0.00%    100.00% # Histogram of number of active warp inst buffers at a given time
system.gpu.shader_cores0.lsq.warpInstBufActive::37            0      0.00%    100.00% # Histogram of number of active warp inst buffers at a given time
system.gpu.shader_cores0.lsq.warpInstBufActive::38            0      0.00%    100.00% # Histogram of number of active warp inst buffers at a given time
system.gpu.shader_cores0.lsq.warpInstBufActive::39            0      0.00%    100.00% # Histogram of number of active warp inst buffers at a given time
system.gpu.shader_cores0.lsq.warpInstBufActive::40            0      0.00%    100.00% # Histogram of number of active warp inst buffers at a given time
system.gpu.shader_cores0.lsq.warpInstBufActive::41            0      0.00%    100.00% # Histogram of number of active warp inst buffers at a given time
system.gpu.shader_cores0.lsq.warpInstBufActive::42            0      0.00%    100.00% # Histogram of number of active warp inst buffers at a given time
system.gpu.shader_cores0.lsq.warpInstBufActive::43            0      0.00%    100.00% # Histogram of number of active warp inst buffers at a given time
system.gpu.shader_cores0.lsq.warpInstBufActive::44            0      0.00%    100.00% # Histogram of number of active warp inst buffers at a given time
system.gpu.shader_cores0.lsq.warpInstBufActive::45            0      0.00%    100.00% # Histogram of number of active warp inst buffers at a given time
system.gpu.shader_cores0.lsq.warpInstBufActive::46            0      0.00%    100.00% # Histogram of number of active warp inst buffers at a given time
system.gpu.shader_cores0.lsq.warpInstBufActive::47            0      0.00%    100.00% # Histogram of number of active warp inst buffers at a given time
system.gpu.shader_cores0.lsq.warpInstBufActive::48            0      0.00%    100.00% # Histogram of number of active warp inst buffers at a given time
system.gpu.shader_cores0.lsq.warpInstBufActive::49            0      0.00%    100.00% # Histogram of number of active warp inst buffers at a given time
system.gpu.shader_cores0.lsq.warpInstBufActive::50            0      0.00%    100.00% # Histogram of number of active warp inst buffers at a given time
system.gpu.shader_cores0.lsq.warpInstBufActive::51            0      0.00%    100.00% # Histogram of number of active warp inst buffers at a given time
system.gpu.shader_cores0.lsq.warpInstBufActive::52            0      0.00%    100.00% # Histogram of number of active warp inst buffers at a given time
system.gpu.shader_cores0.lsq.warpInstBufActive::53            0      0.00%    100.00% # Histogram of number of active warp inst buffers at a given time
system.gpu.shader_cores0.lsq.warpInstBufActive::54            0      0.00%    100.00% # Histogram of number of active warp inst buffers at a given time
system.gpu.shader_cores0.lsq.warpInstBufActive::55            0      0.00%    100.00% # Histogram of number of active warp inst buffers at a given time
system.gpu.shader_cores0.lsq.warpInstBufActive::56            0      0.00%    100.00% # Histogram of number of active warp inst buffers at a given time
system.gpu.shader_cores0.lsq.warpInstBufActive::57            0      0.00%    100.00% # Histogram of number of active warp inst buffers at a given time
system.gpu.shader_cores0.lsq.warpInstBufActive::58            0      0.00%    100.00% # Histogram of number of active warp inst buffers at a given time
system.gpu.shader_cores0.lsq.warpInstBufActive::59            0      0.00%    100.00% # Histogram of number of active warp inst buffers at a given time
system.gpu.shader_cores0.lsq.warpInstBufActive::60            0      0.00%    100.00% # Histogram of number of active warp inst buffers at a given time
system.gpu.shader_cores0.lsq.warpInstBufActive::61            0      0.00%    100.00% # Histogram of number of active warp inst buffers at a given time
system.gpu.shader_cores0.lsq.warpInstBufActive::62            0      0.00%    100.00% # Histogram of number of active warp inst buffers at a given time
system.gpu.shader_cores0.lsq.warpInstBufActive::63            0      0.00%    100.00% # Histogram of number of active warp inst buffers at a given time
system.gpu.shader_cores0.lsq.warpInstBufActive::64            0      0.00%    100.00% # Histogram of number of active warp inst buffers at a given time
system.gpu.shader_cores0.lsq.warpInstBufActive::total      9828624                       # Histogram of number of active warp inst buffers at a given time
system.gpu.shader_cores0.lsq.cacheAccesses     0.002267                       # Average number of concurrent outstanding cache accesses
system.gpu.shader_cores0.lsq.writebackBlockedCycles            2                       # Number of cycles blocked for core writeback stage
system.gpu.shader_cores0.lsq.mshrHitQueued          136                       # Number of hits on blocked lines in MSHRs
system.gpu.shader_cores0.lsq.mshrsFullCycles            0                       # Number of cycles stalled waiting for an MSHR
system.gpu.shader_cores0.lsq.mshrsFullCount            0                       # Number of times MSHRs filled
system.gpu.shader_cores0.lsq.warpCoalescedAccesses::samples          416                       # Number of coalesced accesses per warp instruction
system.gpu.shader_cores0.lsq.warpCoalescedAccesses::mean     1.769231                       # Number of coalesced accesses per warp instruction
system.gpu.shader_cores0.lsq.warpCoalescedAccesses::gmean     1.601517                       # Number of coalesced accesses per warp instruction
system.gpu.shader_cores0.lsq.warpCoalescedAccesses::stdev     0.782098                       # Number of coalesced accesses per warp instruction
system.gpu.shader_cores0.lsq.warpCoalescedAccesses::0            0      0.00%      0.00% # Number of coalesced accesses per warp instruction
system.gpu.shader_cores0.lsq.warpCoalescedAccesses::1          186     44.71%     44.71% # Number of coalesced accesses per warp instruction
system.gpu.shader_cores0.lsq.warpCoalescedAccesses::2          140     33.65%     78.37% # Number of coalesced accesses per warp instruction
system.gpu.shader_cores0.lsq.warpCoalescedAccesses::3           90     21.63%    100.00% # Number of coalesced accesses per warp instruction
system.gpu.shader_cores0.lsq.warpCoalescedAccesses::4            0      0.00%    100.00% # Number of coalesced accesses per warp instruction
system.gpu.shader_cores0.lsq.warpCoalescedAccesses::5            0      0.00%    100.00% # Number of coalesced accesses per warp instruction
system.gpu.shader_cores0.lsq.warpCoalescedAccesses::6            0      0.00%    100.00% # Number of coalesced accesses per warp instruction
system.gpu.shader_cores0.lsq.warpCoalescedAccesses::7            0      0.00%    100.00% # Number of coalesced accesses per warp instruction
system.gpu.shader_cores0.lsq.warpCoalescedAccesses::8            0      0.00%    100.00% # Number of coalesced accesses per warp instruction
system.gpu.shader_cores0.lsq.warpCoalescedAccesses::9            0      0.00%    100.00% # Number of coalesced accesses per warp instruction
system.gpu.shader_cores0.lsq.warpCoalescedAccesses::10            0      0.00%    100.00% # Number of coalesced accesses per warp instruction
system.gpu.shader_cores0.lsq.warpCoalescedAccesses::11            0      0.00%    100.00% # Number of coalesced accesses per warp instruction
system.gpu.shader_cores0.lsq.warpCoalescedAccesses::12            0      0.00%    100.00% # Number of coalesced accesses per warp instruction
system.gpu.shader_cores0.lsq.warpCoalescedAccesses::13            0      0.00%    100.00% # Number of coalesced accesses per warp instruction
system.gpu.shader_cores0.lsq.warpCoalescedAccesses::14            0      0.00%    100.00% # Number of coalesced accesses per warp instruction
system.gpu.shader_cores0.lsq.warpCoalescedAccesses::15            0      0.00%    100.00% # Number of coalesced accesses per warp instruction
system.gpu.shader_cores0.lsq.warpCoalescedAccesses::16            0      0.00%    100.00% # Number of coalesced accesses per warp instruction
system.gpu.shader_cores0.lsq.warpCoalescedAccesses::17            0      0.00%    100.00% # Number of coalesced accesses per warp instruction
system.gpu.shader_cores0.lsq.warpCoalescedAccesses::18            0      0.00%    100.00% # Number of coalesced accesses per warp instruction
system.gpu.shader_cores0.lsq.warpCoalescedAccesses::19            0      0.00%    100.00% # Number of coalesced accesses per warp instruction
system.gpu.shader_cores0.lsq.warpCoalescedAccesses::20            0      0.00%    100.00% # Number of coalesced accesses per warp instruction
system.gpu.shader_cores0.lsq.warpCoalescedAccesses::21            0      0.00%    100.00% # Number of coalesced accesses per warp instruction
system.gpu.shader_cores0.lsq.warpCoalescedAccesses::22            0      0.00%    100.00% # Number of coalesced accesses per warp instruction
system.gpu.shader_cores0.lsq.warpCoalescedAccesses::23            0      0.00%    100.00% # Number of coalesced accesses per warp instruction
system.gpu.shader_cores0.lsq.warpCoalescedAccesses::24            0      0.00%    100.00% # Number of coalesced accesses per warp instruction
system.gpu.shader_cores0.lsq.warpCoalescedAccesses::25            0      0.00%    100.00% # Number of coalesced accesses per warp instruction
system.gpu.shader_cores0.lsq.warpCoalescedAccesses::26            0      0.00%    100.00% # Number of coalesced accesses per warp instruction
system.gpu.shader_cores0.lsq.warpCoalescedAccesses::27            0      0.00%    100.00% # Number of coalesced accesses per warp instruction
system.gpu.shader_cores0.lsq.warpCoalescedAccesses::28            0      0.00%    100.00% # Number of coalesced accesses per warp instruction
system.gpu.shader_cores0.lsq.warpCoalescedAccesses::29            0      0.00%    100.00% # Number of coalesced accesses per warp instruction
system.gpu.shader_cores0.lsq.warpCoalescedAccesses::30            0      0.00%    100.00% # Number of coalesced accesses per warp instruction
system.gpu.shader_cores0.lsq.warpCoalescedAccesses::31            0      0.00%    100.00% # Number of coalesced accesses per warp instruction
system.gpu.shader_cores0.lsq.warpCoalescedAccesses::32            0      0.00%    100.00% # Number of coalesced accesses per warp instruction
system.gpu.shader_cores0.lsq.warpCoalescedAccesses::total          416                       # Number of coalesced accesses per warp instruction
system.gpu.shader_cores0.lsq.warpLatencyRead::samples          288                       # Latency in cycles for whole warp to finish the read
system.gpu.shader_cores0.lsq.warpLatencyRead::mean   168.857639                       # Latency in cycles for whole warp to finish the read
system.gpu.shader_cores0.lsq.warpLatencyRead::gmean    62.068384                       # Latency in cycles for whole warp to finish the read
system.gpu.shader_cores0.lsq.warpLatencyRead::stdev   224.421682                       # Latency in cycles for whole warp to finish the read
system.gpu.shader_cores0.lsq.warpLatencyRead::0-63          155     53.82%     53.82% # Latency in cycles for whole warp to finish the read
system.gpu.shader_cores0.lsq.warpLatencyRead::64-127           31     10.76%     64.58% # Latency in cycles for whole warp to finish the read
system.gpu.shader_cores0.lsq.warpLatencyRead::128-191           18      6.25%     70.83% # Latency in cycles for whole warp to finish the read
system.gpu.shader_cores0.lsq.warpLatencyRead::192-255           16      5.56%     76.39% # Latency in cycles for whole warp to finish the read
system.gpu.shader_cores0.lsq.warpLatencyRead::256-319            7      2.43%     78.82% # Latency in cycles for whole warp to finish the read
system.gpu.shader_cores0.lsq.warpLatencyRead::320-383            4      1.39%     80.21% # Latency in cycles for whole warp to finish the read
system.gpu.shader_cores0.lsq.warpLatencyRead::384-447           11      3.82%     84.03% # Latency in cycles for whole warp to finish the read
system.gpu.shader_cores0.lsq.warpLatencyRead::448-511           12      4.17%     88.19% # Latency in cycles for whole warp to finish the read
system.gpu.shader_cores0.lsq.warpLatencyRead::512-575            9      3.12%     91.32% # Latency in cycles for whole warp to finish the read
system.gpu.shader_cores0.lsq.warpLatencyRead::576-639            5      1.74%     93.06% # Latency in cycles for whole warp to finish the read
system.gpu.shader_cores0.lsq.warpLatencyRead::640-703           10      3.47%     96.53% # Latency in cycles for whole warp to finish the read
system.gpu.shader_cores0.lsq.warpLatencyRead::704-767            5      1.74%     98.26% # Latency in cycles for whole warp to finish the read
system.gpu.shader_cores0.lsq.warpLatencyRead::768-831            1      0.35%     98.61% # Latency in cycles for whole warp to finish the read
system.gpu.shader_cores0.lsq.warpLatencyRead::832-895            3      1.04%     99.65% # Latency in cycles for whole warp to finish the read
system.gpu.shader_cores0.lsq.warpLatencyRead::896-959            1      0.35%    100.00% # Latency in cycles for whole warp to finish the read
system.gpu.shader_cores0.lsq.warpLatencyRead::960-1023            0      0.00%    100.00% # Latency in cycles for whole warp to finish the read
system.gpu.shader_cores0.lsq.warpLatencyRead::total          288                       # Latency in cycles for whole warp to finish the read
system.gpu.shader_cores0.lsq.warpLatencyWrite::samples          128                       # Latency in cycles for whole warp to finish the write
system.gpu.shader_cores0.lsq.warpLatencyWrite::mean    17.187500                       # Latency in cycles for whole warp to finish the write
system.gpu.shader_cores0.lsq.warpLatencyWrite::gmean    15.818663                       # Latency in cycles for whole warp to finish the write
system.gpu.shader_cores0.lsq.warpLatencyWrite::stdev     9.179530                       # Latency in cycles for whole warp to finish the write
system.gpu.shader_cores0.lsq.warpLatencyWrite::0-3            0      0.00%      0.00% # Latency in cycles for whole warp to finish the write
system.gpu.shader_cores0.lsq.warpLatencyWrite::4-7            0      0.00%      0.00% # Latency in cycles for whole warp to finish the write
system.gpu.shader_cores0.lsq.warpLatencyWrite::8-11           17     13.28%     13.28% # Latency in cycles for whole warp to finish the write
system.gpu.shader_cores0.lsq.warpLatencyWrite::12-15           66     51.56%     64.84% # Latency in cycles for whole warp to finish the write
system.gpu.shader_cores0.lsq.warpLatencyWrite::16-19           25     19.53%     84.38% # Latency in cycles for whole warp to finish the write
system.gpu.shader_cores0.lsq.warpLatencyWrite::20-23            3      2.34%     86.72% # Latency in cycles for whole warp to finish the write
system.gpu.shader_cores0.lsq.warpLatencyWrite::24-27            4      3.12%     89.84% # Latency in cycles for whole warp to finish the write
system.gpu.shader_cores0.lsq.warpLatencyWrite::28-31            5      3.91%     93.75% # Latency in cycles for whole warp to finish the write
system.gpu.shader_cores0.lsq.warpLatencyWrite::32-35            3      2.34%     96.09% # Latency in cycles for whole warp to finish the write
system.gpu.shader_cores0.lsq.warpLatencyWrite::36-39            0      0.00%     96.09% # Latency in cycles for whole warp to finish the write
system.gpu.shader_cores0.lsq.warpLatencyWrite::40-43            0      0.00%     96.09% # Latency in cycles for whole warp to finish the write
system.gpu.shader_cores0.lsq.warpLatencyWrite::44-47            1      0.78%     96.88% # Latency in cycles for whole warp to finish the write
system.gpu.shader_cores0.lsq.warpLatencyWrite::48-51            0      0.00%     96.88% # Latency in cycles for whole warp to finish the write
system.gpu.shader_cores0.lsq.warpLatencyWrite::52-55            1      0.78%     97.66% # Latency in cycles for whole warp to finish the write
system.gpu.shader_cores0.lsq.warpLatencyWrite::56-59            2      1.56%     99.22% # Latency in cycles for whole warp to finish the write
system.gpu.shader_cores0.lsq.warpLatencyWrite::60-63            1      0.78%    100.00% # Latency in cycles for whole warp to finish the write
system.gpu.shader_cores0.lsq.warpLatencyWrite::total          128                       # Latency in cycles for whole warp to finish the write
system.gpu.shader_cores0.lsq.tlbMissLatency::samples            0                       # Latency in cycles for TLB miss
system.gpu.shader_cores0.lsq.tlbMissLatency::mean          nan                       # Latency in cycles for TLB miss
system.gpu.shader_cores0.lsq.tlbMissLatency::gmean          nan                       # Latency in cycles for TLB miss
system.gpu.shader_cores0.lsq.tlbMissLatency::stdev          nan                       # Latency in cycles for TLB miss
system.gpu.shader_cores0.lsq.tlbMissLatency::0            0                       # Latency in cycles for TLB miss
system.gpu.shader_cores0.lsq.tlbMissLatency::1            0                       # Latency in cycles for TLB miss
system.gpu.shader_cores0.lsq.tlbMissLatency::2            0                       # Latency in cycles for TLB miss
system.gpu.shader_cores0.lsq.tlbMissLatency::3            0                       # Latency in cycles for TLB miss
system.gpu.shader_cores0.lsq.tlbMissLatency::4            0                       # Latency in cycles for TLB miss
system.gpu.shader_cores0.lsq.tlbMissLatency::5            0                       # Latency in cycles for TLB miss
system.gpu.shader_cores0.lsq.tlbMissLatency::6            0                       # Latency in cycles for TLB miss
system.gpu.shader_cores0.lsq.tlbMissLatency::7            0                       # Latency in cycles for TLB miss
system.gpu.shader_cores0.lsq.tlbMissLatency::8            0                       # Latency in cycles for TLB miss
system.gpu.shader_cores0.lsq.tlbMissLatency::9            0                       # Latency in cycles for TLB miss
system.gpu.shader_cores0.lsq.tlbMissLatency::10            0                       # Latency in cycles for TLB miss
system.gpu.shader_cores0.lsq.tlbMissLatency::11            0                       # Latency in cycles for TLB miss
system.gpu.shader_cores0.lsq.tlbMissLatency::12            0                       # Latency in cycles for TLB miss
system.gpu.shader_cores0.lsq.tlbMissLatency::13            0                       # Latency in cycles for TLB miss
system.gpu.shader_cores0.lsq.tlbMissLatency::14            0                       # Latency in cycles for TLB miss
system.gpu.shader_cores0.lsq.tlbMissLatency::15            0                       # Latency in cycles for TLB miss
system.gpu.shader_cores0.lsq.tlbMissLatency::total            0                       # Latency in cycles for TLB miss
system.gpu.shader_cores1.itb.hits                   0                       # Number of hits in this TLB
system.gpu.shader_cores1.itb.misses                 0                       # Number of misses in this TLB
system.gpu.shader_cores1.itb.hitRate              nan                       # Hit rate for this TLB
system.gpu.shader_cores1.local_loads                0                       # Number of loads from local space
system.gpu.shader_cores1.local_stores               0                       # Number of stores to local space
system.gpu.shader_cores1.shared_loads            5056                       # Number of loads from shared space
system.gpu.shader_cores1.shared_stores           3072                       # Number of stores to shared space
system.gpu.shader_cores1.param_kernel_loads         7296                       # Number of loads from kernel parameter space
system.gpu.shader_cores1.param_local_loads            0                       # Number of loads from local parameter space
system.gpu.shader_cores1.param_local_stores            0                       # Number of stores to local parameter space
system.gpu.shader_cores1.const_loads                0                       # Number of loads from constant space
system.gpu.shader_cores1.tex_loads                  0                       # Number of loads from texture space
system.gpu.shader_cores1.global_loads            8336                       # Number of loads from global space
system.gpu.shader_cores1.global_stores           3168                       # Number of stores to global space
system.gpu.shader_cores1.surf_loads                 0                       # Number of loads from surface space
system.gpu.shader_cores1.generic_loads              0                       # Number of loads from generic spaces (global, shared, local)
system.gpu.shader_cores1.generic_stores             0                       # Number of stores to generic spaces (global, shared, local)
system.gpu.shader_cores1.inst_cache_requests           13                       # Number of instruction cache requests sent
system.gpu.shader_cores1.inst_cache_retries            0                       # Number of instruction cache retries
system.gpu.shader_cores1.inst_counts::0             0                       # Inst counts: 1: ALU, 2: MAD, 3: CTRL, 4: SFU, 5: MEM, 6: TEX, 7: NOP
system.gpu.shader_cores1.inst_counts::1        130432                       # Inst counts: 1: ALU, 2: MAD, 3: CTRL, 4: SFU, 5: MEM, 6: TEX, 7: NOP
system.gpu.shader_cores1.inst_counts::2          2080                       # Inst counts: 1: ALU, 2: MAD, 3: CTRL, 4: SFU, 5: MEM, 6: TEX, 7: NOP
system.gpu.shader_cores1.inst_counts::3         20400                       # Inst counts: 1: ALU, 2: MAD, 3: CTRL, 4: SFU, 5: MEM, 6: TEX, 7: NOP
system.gpu.shader_cores1.inst_counts::4          6144                       # Inst counts: 1: ALU, 2: MAD, 3: CTRL, 4: SFU, 5: MEM, 6: TEX, 7: NOP
system.gpu.shader_cores1.inst_counts::5         26928                       # Inst counts: 1: ALU, 2: MAD, 3: CTRL, 4: SFU, 5: MEM, 6: TEX, 7: NOP
system.gpu.shader_cores1.inst_counts::6             0                       # Inst counts: 1: ALU, 2: MAD, 3: CTRL, 4: SFU, 5: MEM, 6: TEX, 7: NOP
system.gpu.shader_cores1.inst_counts::7             0                       # Inst counts: 1: ALU, 2: MAD, 3: CTRL, 4: SFU, 5: MEM, 6: TEX, 7: NOP
system.gpu.shader_cores1.activeCycles            8503                       # Number of cycles this shader was executing a CTA
system.gpu.shader_cores1.notStalledCycles         6036                       # Number of cycles this shader was actually executing at least one instance
system.gpu.shader_cores1.instInstances         185984                       # Total instructions executed by all PEs in the core
system.gpu.shader_cores1.instPerCycle       21.872751                       # Instruction instances per cycle
system.gpu.shader_cores1.kernels_completed            2                       # Number of kernels completed
system.gpu.shader_cores1.lsq.data_tlb.hits            0                       # Number of hits in this TLB
system.gpu.shader_cores1.lsq.data_tlb.misses            0                       # Number of misses in this TLB
system.gpu.shader_cores1.lsq.data_tlb.hitRate          nan                       # Hit rate for this TLB
system.gpu.shader_cores1.lsq.warpInstBufActive::samples     10530079                       # Histogram of number of active warp inst buffers at a given time
system.gpu.shader_cores1.lsq.warpInstBufActive::mean     7.927834                       # Histogram of number of active warp inst buffers at a given time
system.gpu.shader_cores1.lsq.warpInstBufActive::gmean          nan                       # Histogram of number of active warp inst buffers at a given time
system.gpu.shader_cores1.lsq.warpInstBufActive::stdev    10.882736                       # Histogram of number of active warp inst buffers at a given time
system.gpu.shader_cores1.lsq.warpInstBufActive::0      5253228     49.89%     49.89% # Histogram of number of active warp inst buffers at a given time
system.gpu.shader_cores1.lsq.warpInstBufActive::1       481262      4.57%     54.46% # Histogram of number of active warp inst buffers at a given time
system.gpu.shader_cores1.lsq.warpInstBufActive::2       277525      2.64%     57.09% # Histogram of number of active warp inst buffers at a given time
system.gpu.shader_cores1.lsq.warpInstBufActive::3       217450      2.07%     59.16% # Histogram of number of active warp inst buffers at a given time
system.gpu.shader_cores1.lsq.warpInstBufActive::4       217519      2.07%     61.22% # Histogram of number of active warp inst buffers at a given time
system.gpu.shader_cores1.lsq.warpInstBufActive::5       138330      1.31%     62.54% # Histogram of number of active warp inst buffers at a given time
system.gpu.shader_cores1.lsq.warpInstBufActive::6        98804      0.94%     63.48% # Histogram of number of active warp inst buffers at a given time
system.gpu.shader_cores1.lsq.warpInstBufActive::7        75997      0.72%     64.20% # Histogram of number of active warp inst buffers at a given time
system.gpu.shader_cores1.lsq.warpInstBufActive::8       225617      2.14%     66.34% # Histogram of number of active warp inst buffers at a given time
system.gpu.shader_cores1.lsq.warpInstBufActive::9        82633      0.78%     67.13% # Histogram of number of active warp inst buffers at a given time
system.gpu.shader_cores1.lsq.warpInstBufActive::10       106757      1.01%     68.14% # Histogram of number of active warp inst buffers at a given time
system.gpu.shader_cores1.lsq.warpInstBufActive::11       116899      1.11%     69.25% # Histogram of number of active warp inst buffers at a given time
system.gpu.shader_cores1.lsq.warpInstBufActive::12        97802      0.93%     70.18% # Histogram of number of active warp inst buffers at a given time
system.gpu.shader_cores1.lsq.warpInstBufActive::13       126674      1.20%     71.38% # Histogram of number of active warp inst buffers at a given time
system.gpu.shader_cores1.lsq.warpInstBufActive::14       133635      1.27%     72.65% # Histogram of number of active warp inst buffers at a given time
system.gpu.shader_cores1.lsq.warpInstBufActive::15       115965      1.10%     73.75% # Histogram of number of active warp inst buffers at a given time
system.gpu.shader_cores1.lsq.warpInstBufActive::16       555409      5.27%     79.03% # Histogram of number of active warp inst buffers at a given time
system.gpu.shader_cores1.lsq.warpInstBufActive::17        58812      0.56%     79.58% # Histogram of number of active warp inst buffers at a given time
system.gpu.shader_cores1.lsq.warpInstBufActive::18        45329      0.43%     80.02% # Histogram of number of active warp inst buffers at a given time
system.gpu.shader_cores1.lsq.warpInstBufActive::19        48764      0.46%     80.48% # Histogram of number of active warp inst buffers at a given time
system.gpu.shader_cores1.lsq.warpInstBufActive::20       136721      1.30%     81.78% # Histogram of number of active warp inst buffers at a given time
system.gpu.shader_cores1.lsq.warpInstBufActive::21       125669      1.19%     82.97% # Histogram of number of active warp inst buffers at a given time
system.gpu.shader_cores1.lsq.warpInstBufActive::22       126191      1.20%     84.17% # Histogram of number of active warp inst buffers at a given time
system.gpu.shader_cores1.lsq.warpInstBufActive::23       121898      1.16%     85.33% # Histogram of number of active warp inst buffers at a given time
system.gpu.shader_cores1.lsq.warpInstBufActive::24       106789      1.01%     86.34% # Histogram of number of active warp inst buffers at a given time
system.gpu.shader_cores1.lsq.warpInstBufActive::25        78512      0.75%     87.09% # Histogram of number of active warp inst buffers at a given time
system.gpu.shader_cores1.lsq.warpInstBufActive::26        59727      0.57%     87.65% # Histogram of number of active warp inst buffers at a given time
[...]
system.ruby.Directory.miss_mach_latency_hist::total         5191                      
system.ruby.Directory.miss_latency_hist.issue_to_initial_request::bucket_size            1                      
system.ruby.Directory.miss_latency_hist.issue_to_initial_request::max_bucket            9                      
system.ruby.Directory.miss_latency_hist.issue_to_initial_request::samples            1                      
system.ruby.Directory.miss_latency_hist.issue_to_initial_request::stdev          nan                      
system.ruby.Directory.miss_latency_hist.issue_to_initial_request |           1    100.00%    100.00% |           0      0.00%    100.00% |           0      0.00%    100.00% |           0      0.00%    100.00% |           0      0.00%    100.00% |           0      0.00%    100.00% |           0      0.00%    100.00% |           0      0.00%    100.00% |           0      0.00%    100.00% |           0      0.00%    100.00%
system.ruby.Directory.miss_latency_hist.issue_to_initial_request::total            1                      
system.ruby.Directory.miss_latency_hist.initial_to_forward::bucket_size            1                      
system.ruby.Directory.miss_latency_hist.initial_to_forward::max_bucket            9                      
system.ruby.Directory.miss_latency_hist.initial_to_forward::samples            1                      
system.ruby.Directory.miss_latency_hist.initial_to_forward::stdev          nan                      
system.ruby.Directory.miss_latency_hist.initial_to_forward |           1    100.00%    100.00% |           0      0.00%    100.00% |           0      0.00%    100.00% |           0      0.00%    100.00% |           0      0.00%    100.00% |           0      0.00%    100.00% |           0      0.00%    100.00% |           0      0.00%    100.00% |           0      0.00%    100.00% |           0      0.00%    100.00%
system.ruby.Directory.miss_latency_hist.initial_to_forward::total            1                      
system.ruby.Directory.miss_latency_hist.forward_to_first_response::bucket_size            1                      
system.ruby.Directory.miss_latency_hist.forward_to_first_response::max_bucket            9                      
system.ruby.Directory.miss_latency_hist.forward_to_first_response::samples            1                      
system.ruby.Directory.miss_latency_hist.forward_to_first_response::stdev          nan                      
system.ruby.Directory.miss_latency_hist.forward_to_first_response |           1    100.00%    100.00% |           0      0.00%    100.00% |           0      0.00%    100.00% |           0      0.00%    100.00% |           0      0.00%    100.00% |           0      0.00%    100.00% |           0      0.00%    100.00% |           0      0.00%    100.00% |           0      0.00%    100.00% |           0      0.00%    100.00%
system.ruby.Directory.miss_latency_hist.forward_to_first_response::total            1                      
system.ruby.Directory.miss_latency_hist.first_response_to_completion::bucket_size           16                      
system.ruby.Directory.miss_latency_hist.first_response_to_completion::max_bucket          159                      
system.ruby.Directory.miss_latency_hist.first_response_to_completion::samples            1                      
system.ruby.Directory.miss_latency_hist.first_response_to_completion::mean          157                      
system.ruby.Directory.miss_latency_hist.first_response_to_completion::gmean   157.000000                      
system.ruby.Directory.miss_latency_hist.first_response_to_completion::stdev          nan                      
system.ruby.Directory.miss_latency_hist.first_response_to_completion |           0      0.00%      0.00% |           0      0.00%      0.00% |           0      0.00%      0.00% |           0      0.00%      0.00% |           0      0.00%      0.00% |           0      0.00%      0.00% |           0      0.00%      0.00% |           0      0.00%      0.00% |           0      0.00%      0.00% |           1    100.00%    100.00%
system.ruby.Directory.miss_latency_hist.first_response_to_completion::total            1                      
system.ruby.LD.L1Cache.miss_type_mach_latency_hist::bucket_size          256                      
system.ruby.LD.L1Cache.miss_type_mach_latency_hist::max_bucket         2559                      
system.ruby.LD.L1Cache.miss_type_mach_latency_hist::samples          714                      
system.ruby.LD.L1Cache.miss_type_mach_latency_hist::mean   419.266106                      
system.ruby.LD.L1Cache.miss_type_mach_latency_hist::gmean   169.504921                      
system.ruby.LD.L1Cache.miss_type_mach_latency_hist::stdev   513.258981                      
system.ruby.LD.L1Cache.miss_type_mach_latency_hist |         471     65.97%     65.97% |          13      1.82%     67.79% |          15      2.10%     69.89% |          49      6.86%     76.75% |         108     15.13%     91.88% |          51      7.14%     99.02% |           7      0.98%    100.00% |           0      0.00%    100.00% |           0      0.00%    100.00% |           0      0.00%    100.00%
system.ruby.LD.L1Cache.miss_type_mach_latency_hist::total          714                      
system.ruby.LD.Directory.miss_type_mach_latency_hist::bucket_size          512                      
system.ruby.LD.Directory.miss_type_mach_latency_hist::max_bucket         5119                      
system.ruby.LD.Directory.miss_type_mach_latency_hist::samples         2064                      
system.ruby.LD.Directory.miss_type_mach_latency_hist::mean   423.570736                      
system.ruby.LD.Directory.miss_type_mach_latency_hist::gmean   302.923436                      
system.ruby.LD.Directory.miss_type_mach_latency_hist::stdev   435.793745                      
system.ruby.LD.Directory.miss_type_mach_latency_hist |        1590     77.03%     77.03% |         209     10.13%     87.16% |         196      9.50%     96.66% |          48      2.33%     98.98% |          20      0.97%     99.95% |           1      0.05%    100.00% |           0      0.00%    100.00% |           0      0.00%    100.00% |           0      0.00%    100.00% |           0      0.00%    100.00%
system.ruby.LD.Directory.miss_type_mach_latency_hist::total         2064                      
system.ruby.ST.L1Cache.miss_type_mach_latency_hist::bucket_size          256                      
system.ruby.ST.L1Cache.miss_type_mach_latency_hist::max_bucket         2559                      
system.ruby.ST.L1Cache.miss_type_mach_latency_hist::samples          228                      
system.ruby.ST.L1Cache.miss_type_mach_latency_hist::mean   744.723684                      
system.ruby.ST.L1Cache.miss_type_mach_latency_hist::gmean   395.248592                      
system.ruby.ST.L1Cache.miss_type_mach_latency_hist::stdev   510.134981                      
system.ruby.ST.L1Cache.miss_type_mach_latency_hist |          74     32.46%     32.46% |           0      0.00%     32.46% |           6      2.63%     35.09% |          74     32.46%     67.54% |          48     21.05%     88.60% |          23     10.09%     98.68% |           3      1.32%    100.00% |           0      0.00%    100.00% |           0      0.00%    100.00% |           0      0.00%    100.00%
system.ruby.ST.L1Cache.miss_type_mach_latency_hist::total          228                      
system.ruby.ST.Directory.miss_type_mach_latency_hist::bucket_size          256                      
system.ruby.ST.Directory.miss_type_mach_latency_hist::max_bucket         2559                      
system.ruby.ST.Directory.miss_type_mach_latency_hist::samples         1449                      
system.ruby.ST.Directory.miss_type_mach_latency_hist::mean   543.708075                      
system.ruby.ST.Directory.miss_type_mach_latency_hist::gmean   331.228704                      
system.ruby.ST.Directory.miss_type_mach_latency_hist::stdev   587.212452                      
system.ruby.ST.Directory.miss_type_mach_latency_hist |        1049     72.39%     72.39% |           8      0.55%     72.95% |           3      0.21%     73.15% |           3      0.21%     73.36% |          59      4.07%     77.43% |         135      9.32%     86.75% |         183     12.63%     99.38% |           9      0.62%    100.00% |           0      0.00%    100.00% |           0      0.00%    100.00%
system.ruby.ST.Directory.miss_type_mach_latency_hist::total         1449                      
system.ruby.IFETCH.L1Cache.miss_type_mach_latency_hist::bucket_size           32                      
system.ruby.IFETCH.L1Cache.miss_type_mach_latency_hist::max_bucket          319                      
system.ruby.IFETCH.L1Cache.miss_type_mach_latency_hist::samples           36                      
system.ruby.IFETCH.L1Cache.miss_type_mach_latency_hist::mean   124.750000                      
system.ruby.IFETCH.L1Cache.miss_type_mach_latency_hist::gmean    94.481569                      
system.ruby.IFETCH.L1Cache.miss_type_mach_latency_hist::stdev    89.640353                      
system.ruby.IFETCH.L1Cache.miss_type_mach_latency_hist |           0      0.00%      0.00% |          18     50.00%     50.00% |           1      2.78%     52.78% |           1      2.78%     55.56% |           1      2.78%     58.33% |           5     13.89%     72.22% |           5     13.89%     86.11% |           2      5.56%     91.67% |           1      2.78%     94.44% |           2      5.56%    100.00%
system.ruby.IFETCH.L1Cache.miss_type_mach_latency_hist::total           36                      
system.ruby.IFETCH.Directory.miss_type_mach_latency_hist::bucket_size           64                      
system.ruby.IFETCH.Directory.miss_type_mach_latency_hist::max_bucket          639                      
system.ruby.IFETCH.Directory.miss_type_mach_latency_hist::samples         1674                      
system.ruby.IFETCH.Directory.miss_type_mach_latency_hist::mean   196.202509                      
system.ruby.IFETCH.Directory.miss_type_mach_latency_hist::gmean   194.909793                      
system.ruby.IFETCH.Directory.miss_type_mach_latency_hist::stdev    21.291734                      
system.ruby.IFETCH.Directory.miss_type_mach_latency_hist |           0      0.00%      0.00% |           0      0.00%      0.00% |         275     16.43%     16.43% |        1390     83.03%     99.46% |           8      0.48%     99.94% |           1      0.06%    100.00% |           0      0.00%    100.00% |           0      0.00%    100.00% |           0      0.00%    100.00% |           0      0.00%    100.00%
system.ruby.IFETCH.Directory.miss_type_mach_latency_hist::total         1674                      
system.ruby.RMW_Read.Directory.miss_type_mach_latency_hist::bucket_size           32                      
system.ruby.RMW_Read.Directory.miss_type_mach_latency_hist::max_bucket          319                      
system.ruby.RMW_Read.Directory.miss_type_mach_latency_hist::samples            4                      
system.ruby.RMW_Read.Directory.miss_type_mach_latency_hist::mean   163.250000                      
system.ruby.RMW_Read.Directory.miss_type_mach_latency_hist::gmean   161.784767                      
system.ruby.RMW_Read.Directory.miss_type_mach_latency_hist::stdev    26.512576                      
system.ruby.RMW_Read.Directory.miss_type_mach_latency_hist |           0      0.00%      0.00% |           0      0.00%      0.00% |           0      0.00%      0.00% |           0      0.00%      0.00% |           3     75.00%     75.00% |           0      0.00%     75.00% |           1     25.00%    100.00% |           0      0.00%    100.00% |           0      0.00%    100.00% |           0      0.00%    100.00%
system.ruby.RMW_Read.Directory.miss_type_mach_latency_hist::total            4                      
system.ruby.L1Cache_Controller.Load      |     1240460     99.82%     99.82% |         422      0.03%     99.85% |         427      0.03%     99.89% |         422      0.03%     99.92% |         422      0.03%     99.95% |           0      0.00%     99.95% |         577      0.05%    100.00%
system.ruby.L1Cache_Controller.Load::total      1242730                      
system.ruby.L1Cache_Controller.Ifetch    |     6665111    100.00%    100.00% |          12      0.00%    100.00% |          13      0.00%    100.00% |          12      0.00%    100.00% |          12      0.00%    100.00% |           0      0.00%    100.00% |           0      0.00%    100.00%
system.ruby.L1Cache_Controller.Ifetch::total      6665160                      
system.ruby.L1Cache_Controller.Store     |      845549     99.78%     99.78% |         314      0.04%     99.82% |         316      0.04%     99.86% |         314      0.04%     99.89% |         314      0.04%     99.93% |           0      0.00%     99.93% |         576      0.07%    100.00%
system.ruby.L1Cache_Controller.Store::total       847383                      
system.ruby.L1Cache_Controller.Data      |        4101     66.48%     66.48% |         201      3.26%     69.74% |         247      4.00%     73.74% |         211      3.42%     77.16% |         256      4.15%     81.31% |           0      0.00%     81.31% |        1153     18.69%    100.00%
system.ruby.L1Cache_Controller.Data::total         6169                      
system.ruby.L1Cache_Controller.Fwd_GETX  |         169     17.28%     17.28% |         168     17.18%     34.46% |         211     21.57%     56.03% |         171     17.48%     73.52% |         217     22.19%     95.71% |           0      0.00%     95.71% |          42      4.29%    100.00%
system.ruby.L1Cache_Controller.Fwd_GETX::total          978                      
system.ruby.L1Cache_Controller.Replacement |        3554     75.76%     75.76% |           0      0.00%     75.76% |           0      0.00%     75.76% |           0      0.00%     75.76% |           0      0.00%     75.76% |           0      0.00%     75.76% |        1137     24.24%    100.00%
system.ruby.L1Cache_Controller.Replacement::total         4691                      
system.ruby.L1Cache_Controller.Writeback_Ack |        3433     75.80%     75.80% |           0      0.00%     75.80% |           0      0.00%     75.80% |           0      0.00%     75.80% |           0      0.00%     75.80% |           0      0.00%     75.80% |        1096     24.20%    100.00%
system.ruby.L1Cache_Controller.Writeback_Ack::total         4529                      
system.ruby.L1Cache_Controller.I.Load    |        1405     50.58%     50.58% |         181      6.52%     57.09% |         211      7.60%     64.69% |         186      6.70%     71.38% |         218      7.85%     79.23% |           0      0.00%     79.23% |         577     20.77%    100.00%
system.ruby.L1Cache_Controller.I.Load::total         2778                      
system.ruby.L1Cache_Controller.I.Ifetch  |        1661     97.13%     97.13% |          12      0.70%     97.84% |          13      0.76%     98.60% |          12      0.70%     99.30% |          12      0.70%    100.00% |           0      0.00%    100.00% |           0      0.00%    100.00%
system.ruby.L1Cache_Controller.I.Ifetch::total         1710                      
system.ruby.L1Cache_Controller.I.Store   |        1035     61.57%     61.57% |           8      0.48%     62.05% |          23      1.37%     63.41% |          13      0.77%     64.19% |          26      1.55%     65.73% |           0      0.00%     65.73% |         576     34.27%    100.00%
system.ruby.L1Cache_Controller.I.Store::total         1681                      
system.ruby.L1Cache_Controller.I.Replacement |         121     74.69%     74.69% |           0      0.00%     74.69% |           0      0.00%     74.69% |           0      0.00%     74.69% |           0      0.00%     74.69% |           0      0.00%     74.69% |          41     25.31%    100.00%
system.ruby.L1Cache_Controller.I.Replacement::total          162                      
system.ruby.L1Cache_Controller.M.Load    |     1239055     99.93%     99.93% |         241      0.02%     99.95% |         216      0.02%     99.96% |         236      0.02%     99.98% |         204      0.02%    100.00% |           0      0.00%    100.00% |           0      0.00%    100.00%
system.ruby.L1Cache_Controller.M.Load::total      1239952                      
system.ruby.L1Cache_Controller.M.Ifetch  |     6663450    100.00%    100.00% |           0      0.00%    100.00% |           0      0.00%    100.00% |           0      0.00%    100.00% |           0      0.00%    100.00% |           0      0.00%    100.00% |           0      0.00%    100.00%
system.ruby.L1Cache_Controller.M.Ifetch::total      6663450                      
system.ruby.L1Cache_Controller.M.Store   |      844514     99.86%     99.86% |         306      0.04%     99.90% |         293      0.03%     99.93% |         301      0.04%     99.97% |         288      0.03%    100.00% |           0      0.00%    100.00% |           0      0.00%    100.00%
system.ruby.L1Cache_Controller.M.Store::total       845702                      
system.ruby.L1Cache_Controller.M.Fwd_GETX |         169     17.28%     17.28% |         168     17.18%     34.46% |         211     21.57%     56.03% |         171     17.48%     73.52% |         217     22.19%     95.71% |           0      0.00%     95.71% |          42      4.29%    100.00%
system.ruby.L1Cache_Controller.M.Fwd_GETX::total          978                      
system.ruby.L1Cache_Controller.M.Replacement |        3433     75.80%     75.80% |           0      0.00%     75.80% |           0      0.00%     75.80% |           0      0.00%     75.80% |           0      0.00%     75.80% |           0      0.00%     75.80% |        1096     24.20%    100.00%
system.ruby.L1Cache_Controller.M.Replacement::total         4529                      
system.ruby.L1Cache_Controller.MI.Writeback_Ack |        3433     75.80%     75.80% |           0      0.00%     75.80% |           0      0.00%     75.80% |           0      0.00%     75.80% |           0      0.00%     75.80% |           0      0.00%     75.80% |        1096     24.20%    100.00%
system.ruby.L1Cache_Controller.MI.Writeback_Ack::total         4529                      
system.ruby.L1Cache_Controller.IS.Data   |        3066     68.32%     68.32% |         193      4.30%     72.62% |         224      4.99%     77.61% |         198      4.41%     82.02% |         230      5.12%     87.14% |           0      0.00%     87.14% |         577     12.86%    100.00%
system.ruby.L1Cache_Controller.IS.Data::total         4488                      
system.ruby.L1Cache_Controller.IM.Data   |        1035     61.57%     61.57% |           8      0.48%     62.05% |          23      1.37%     63.41% |          13      0.77%     64.19% |          26      1.55%     65.73% |           0      0.00%     65.73% |         576     34.27%    100.00%
system.ruby.L1Cache_Controller.IM.Data::total         1681                      
system.ruby.Directory_Controller.GETX            6998      0.00%      0.00%
system.ruby.Directory_Controller.PUTX            4529      0.00%      0.00%
system.ruby.Directory_Controller.Memory_Data         5191      0.00%      0.00%
system.ruby.Directory_Controller.Memory_Ack         4529      0.00%      0.00%
system.ruby.Directory_Controller.I.GETX          5191      0.00%      0.00%
system.ruby.Directory_Controller.M.GETX           978      0.00%      0.00%
system.ruby.Directory_Controller.M.PUTX          4529      0.00%      0.00%
system.ruby.Directory_Controller.IM.GETX          829      0.00%      0.00%
system.ruby.Directory_Controller.IM.Memory_Data         5191      0.00%      0.00%
system.ruby.Directory_Controller.MI.Memory_Ack         4529      0.00%      0.00%

---------- End Simulation Statistics   ----------
