
---------- Begin Simulation Statistics ----------
sim_seconds                                  0.007139                       # Number of seconds simulated
sim_ticks                                  7139023000                       # Number of ticks simulated
final_tick                                 7139023000                       # Number of ticks from beginning of simulation (restored from checkpoints and never reset)
sim_freq                                 1000000000000                       # Frequency of simulated ticks
host_inst_rate                                  16329                       # Simulator instruction rate (inst/s)
host_op_rate                                    26863                       # Simulator op (including micro ops) rate (op/s)
host_tick_rate                               70467475                       # Simulator tick rate (ticks/s)
host_mem_usage                                4536716                       # Number of bytes of host memory used
host_seconds                                   101.31                       # Real time elapsed on the host
sim_insts                                     1654272                       # Number of instructions simulated
sim_ops                                       2721481                       # Number of ops (including micro ops) simulated
system.voltage_domain.voltage                       1                       # Voltage in Volts
system.clk_domain.clock                          1000                       # Clock period in ticks
system.mem_ctrls.clk_domain.clock                2500                       # Clock period in ticks
system.mem_ctrls.bytes_read::ruby.dir_cntrl0      1067520                       # Number of bytes read from this memory
system.mem_ctrls.bytes_read::total            1067520                       # Number of bytes read from this memory
system.mem_ctrls.bytes_written::ruby.dir_cntrl0       943360                       # Number of bytes written to this memory
system.mem_ctrls.bytes_written::total          943360                       # Number of bytes written to this memory
system.mem_ctrls.num_reads::ruby.dir_cntrl0         8340                       # Number of read requests responded to by this memory
system.mem_ctrls.num_reads::total                8340                       # Number of read requests responded to by this memory
system.mem_ctrls.num_writes::ruby.dir_cntrl0         7370                       # Number of write requests responded to by this memory
system.mem_ctrls.num_writes::total               7370                       # Number of write requests responded to by this memory
system.mem_ctrls.bw_read::ruby.dir_cntrl0    149533066                       # Total read bandwidth from this memory (bytes/s)
system.mem_ctrls.bw_read::total             149533066                       # Total read bandwidth from this memory (bytes/s)
system.mem_ctrls.bw_write::ruby.dir_cntrl0    132141331                       # Write bandwidth from this memory (bytes/s)
system.mem_ctrls.bw_write::total            132141331                       # Write bandwidth from this memory (bytes/s)
system.mem_ctrls.bw_total::ruby.dir_cntrl0    281674397                       # Total bandwidth to/from this memory (bytes/s)
system.mem_ctrls.bw_total::total            281674397                       # Total bandwidth to/from this memory (bytes/s)
system.mem_ctrls.memReq                         15710                       # Total number of memory requests
system.mem_ctrls.memRead                         8340                       # Number of memory reads
system.mem_ctrls.memWrite                        7370                       # Number of memory writes
system.mem_ctrls.memRefresh                     43543                       # Number of memory refreshes
system.mem_ctrls.memWaitCycles                 117018                       # Delay stalled at the head of the bank queue
system.mem_ctrls.memInputQ                      63093                       # Delay in the input queue
system.mem_ctrls.memBankQ                      223745                       # Delay behind the head of the bank queue
system.mem_ctrls.totalStalls                   403856                       # Total number of stall cycles
system.mem_ctrls.stallsPerReq               25.706938                       # Expected number of stall cycles per request
system.mem_ctrls.memBankBusy                    61223                       # memory stalls due to busy bank
system.mem_ctrls.memBusBusy                     20101                       # memory stalls due to busy bus
system.mem_ctrls.memReadWriteBusy                4467                       # memory stalls due to read write turnaround
system.mem_ctrls.memDataBusBusy                  2069                       # memory stalls due to read read turnaround
system.mem_ctrls.memArbWait                     14726                       # memory stalls due to arbitration
system.mem_ctrls.memNotOld                      14432                       # memory stalls due to anti starvation
system.mem_ctrls.memBankCount            |         548      3.49%      3.49% |         534      3.40%      6.89% |         601      3.83%     10.71% |         672      4.28%     14.99% |         421      2.68%     17.67% |         344      2.19%     19.86% |         357      2.27%     22.13% |         675      4.30%     26.43% |         472      3.00%     29.43% |         350      2.23%     31.66% |         387      2.46%     34.12% |         404      2.57%     36.70% |         440      2.80%     39.50% |         421      2.68%     42.18% |         419      2.67%     44.84% |         712      4.53%     49.38% |        1818     11.57%     60.95% |         239      1.52%     62.47% |         230      1.46%     63.93% |         290      1.85%     65.78% |         272      1.73%     67.51% |         577      3.67%     71.18% |         657      4.18%     75.37% |         272      1.73%     77.10% |         224      1.43%     78.52% |         271      1.73%     80.25% |         396      2.52%     82.77% |         404      2.57%     85.34% |         440      2.80%     88.14% |         728      4.63%     92.78% |         710      4.52%     97.29% |         425      2.71%    100.00% # Number of accesses per bank
system.mem_ctrls.memBankCount::total            15710                       # Number of accesses per bank
system.ruby_clk_domain.clock                      500                       # Clock period in ticks
system.ruby.phys_mem.bytes_read::writebacks        41220                       # Number of bytes read from this memory
system.ruby.phys_mem.bytes_read::cpu.inst     18875488                       # Number of bytes read from this memory
system.ruby.phys_mem.bytes_read::cpu.data      2306950                       # Number of bytes read from this memory
system.ruby.phys_mem.bytes_read::gpu.ce         53252                       # Number of bytes read from this memory
system.ruby.phys_mem.bytes_read::gpu.shader_cores0.data      2069088                       # Number of bytes read from this memory
system.ruby.phys_mem.bytes_read::gpu.shader_cores0.inst         1200                       # Number of bytes read from this memory
system.ruby.phys_mem.bytes_read::gpu.shader_cores1.data      1676608                       # Number of bytes read from this memory
system.ruby.phys_mem.bytes_read::gpu.shader_cores1.inst         1392                       # Number of bytes read from this memory
system.ruby.phys_mem.bytes_read::gpu.shader_cores2.data      1646080                       # Number of bytes read from this memory
system.ruby.phys_mem.bytes_read::gpu.shader_cores2.inst         1648                       # Number of bytes read from this memory
system.ruby.phys_mem.bytes_read::gpu.shader_cores3.data      2082016                       # Number of bytes read from this memory
system.ruby.phys_mem.bytes_read::gpu.shader_cores3.inst         1672                       # Number of bytes read from this memory
system.ruby.phys_mem.bytes_read::total       28756614                       # Number of bytes read from this memory
system.ruby.phys_mem.bytes_inst_read::cpu.inst     18875488                       # Number of instructions bytes read from this memory
system.ruby.phys_mem.bytes_inst_read::gpu.shader_cores0.inst         1200                       # Number of instructions bytes read from this memory
system.ruby.phys_mem.bytes_inst_read::gpu.shader_cores1.inst         1392                       # Number of instructions bytes read from this memory
system.ruby.phys_mem.bytes_inst_read::gpu.shader_cores2.inst         1648                       # Number of instructions bytes read from this memory
system.ruby.phys_mem.bytes_inst_read::gpu.shader_cores3.inst         1672                       # Number of instructions bytes read from this memory
system.ruby.phys_mem.bytes_inst_read::total     18881400                       # Number of instructions bytes read from this memory
system.ruby.phys_mem.bytes_written::writebacks        41220                       # Number of bytes written to this memory
system.ruby.phys_mem.bytes_written::cpu.data      1151784                       # Number of bytes written to this memory
system.ruby.phys_mem.bytes_written::gpu.ce        53252                       # Number of bytes written to this memory
system.ruby.phys_mem.bytes_written::gpu.shader_cores0.data        34412                       # Number of bytes written to this memory
system.ruby.phys_mem.bytes_written::gpu.shader_cores1.data        34120                       # Number of bytes written to this memory
system.ruby.phys_mem.bytes_written::gpu.shader_cores2.data        64484                       # Number of bytes written to this memory
system.ruby.phys_mem.bytes_written::gpu.shader_cores3.data        36744                       # Number of bytes written to this memory
system.ruby.phys_mem.bytes_written::total      1416016                       # Number of bytes written to this memory
system.ruby.phys_mem.num_reads::writebacks        10305                       # Number of read requests responded to by this memory
system.ruby.phys_mem.num_reads::cpu.inst      2359436                       # Number of read requests responded to by this memory
system.ruby.phys_mem.num_reads::cpu.data       312278                       # Number of read requests responded to by this memory
system.ruby.phys_mem.num_reads::gpu.ce            424                       # Number of read requests responded to by this memory
system.ruby.phys_mem.num_reads::gpu.shader_cores0.data        61091                       # Number of read requests responded to by this memory
system.ruby.phys_mem.num_reads::gpu.shader_cores0.inst           50                       # Number of read requests responded to by this memory
system.ruby.phys_mem.num_reads::gpu.shader_cores1.data        48796                       # Number of read requests responded to by this memory
system.ruby.phys_mem.num_reads::gpu.shader_cores1.inst           58                       # Number of read requests responded to by this memory
system.ruby.phys_mem.num_reads::gpu.shader_cores2.data        46057                       # Number of read requests responded to by this memory
system.ruby.phys_mem.num_reads::gpu.shader_cores2.inst           69                       # Number of read requests responded to by this memory
system.ruby.phys_mem.num_reads::gpu.shader_cores3.data        60359                       # Number of read requests responded to by this memory
system.ruby.phys_mem.num_reads::gpu.shader_cores3.inst           70                       # Number of read requests responded to by this memory
system.ruby.phys_mem.num_reads::total         2898993                       # Number of read requests responded to by this memory
system.ruby.phys_mem.num_writes::writebacks        10305                       # Number of write requests responded to by this memory
system.ruby.phys_mem.num_writes::cpu.data       165301                       # Number of write requests responded to by this memory
system.ruby.phys_mem.num_writes::gpu.ce           423                       # Number of write requests responded to by this memory
system.ruby.phys_mem.num_writes::gpu.shader_cores0.data         2352                       # Number of write requests responded to by this memory
system.ruby.phys_mem.num_writes::gpu.shader_cores1.data         2390                       # Number of write requests responded to by this memory
system.ruby.phys_mem.num_writes::gpu.shader_cores2.data         2799                       # Number of write requests responded to by this memory
system.ruby.phys_mem.num_writes::gpu.shader_cores3.data         2851                       # Number of write requests responded to by this memory
system.ruby.phys_mem.num_writes::total         186421                       # Number of write requests responded to by this memory
system.ruby.phys_mem.bw_read::writebacks      5773899                       # Total read bandwidth from this memory (bytes/s)
system.ruby.phys_mem.bw_read::cpu.inst     2643987560                       # Total read bandwidth from this memory (bytes/s)
system.ruby.phys_mem.bw_read::cpu.data      323146459                       # Total read bandwidth from this memory (bytes/s)
system.ruby.phys_mem.bw_read::gpu.ce          7459284                       # Total read bandwidth from this memory (bytes/s)
system.ruby.phys_mem.bw_read::gpu.shader_cores0.data    289827894                       # Total read bandwidth from this memory (bytes/s)
system.ruby.phys_mem.bw_read::gpu.shader_cores0.inst       168090                       # Total read bandwidth from this memory (bytes/s)
system.ruby.phys_mem.bw_read::gpu.shader_cores1.data    234851183                       # Total read bandwidth from this memory (bytes/s)
system.ruby.phys_mem.bw_read::gpu.shader_cores1.inst       194985                       # Total read bandwidth from this memory (bytes/s)
system.ruby.phys_mem.bw_read::gpu.shader_cores2.data    230574968                       # Total read bandwidth from this memory (bytes/s)
system.ruby.phys_mem.bw_read::gpu.shader_cores2.inst       230844                       # Total read bandwidth from this memory (bytes/s)
system.ruby.phys_mem.bw_read::gpu.shader_cores3.data    291638786                       # Total read bandwidth from this memory (bytes/s)
system.ruby.phys_mem.bw_read::gpu.shader_cores3.inst       234206                       # Total read bandwidth from this memory (bytes/s)
system.ruby.phys_mem.bw_read::total        4028088157                       # Total read bandwidth from this memory (bytes/s)
system.ruby.phys_mem.bw_inst_read::cpu.inst   2643987560                       # Instruction read bandwidth from this memory (bytes/s)
system.ruby.phys_mem.bw_inst_read::gpu.shader_cores0.inst       168090                       # Instruction read bandwidth from this memory (bytes/s)
system.ruby.phys_mem.bw_inst_read::gpu.shader_cores1.inst       194985                       # Instruction read bandwidth from this memory (bytes/s)
system.ruby.phys_mem.bw_inst_read::gpu.shader_cores2.inst       230844                       # Instruction read bandwidth from this memory (bytes/s)
system.ruby.phys_mem.bw_inst_read::gpu.shader_cores3.inst       234206                       # Instruction read bandwidth from this memory (bytes/s)
system.ruby.phys_mem.bw_inst_read::total   2644815684                       # Instruction read bandwidth from this memory (bytes/s)
system.ruby.phys_mem.bw_write::writebacks      5773899                       # Write bandwidth from this memory (bytes/s)
system.ruby.phys_mem.bw_write::cpu.data     161336362                       # Write bandwidth from this memory (bytes/s)
system.ruby.phys_mem.bw_write::gpu.ce         7459284                       # Write bandwidth from this memory (bytes/s)
system.ruby.phys_mem.bw_write::gpu.shader_cores0.data      4820267                       # Write bandwidth from this memory (bytes/s)
system.ruby.phys_mem.bw_write::gpu.shader_cores1.data      4779365                       # Write bandwidth from this memory (bytes/s)
system.ruby.phys_mem.bw_write::gpu.shader_cores2.data      9032609                       # Write bandwidth from this memory (bytes/s)
system.ruby.phys_mem.bw_write::gpu.shader_cores3.data      5146923                       # Write bandwidth from this memory (bytes/s)
system.ruby.phys_mem.bw_write::total        198348710                       # Write bandwidth from this memory (bytes/s)
system.ruby.phys_mem.bw_total::writebacks     11547799                       # Total bandwidth to/from this memory (bytes/s)
system.ruby.phys_mem.bw_total::cpu.inst    2643987560                       # Total bandwidth to/from this memory (bytes/s)
system.ruby.phys_mem.bw_total::cpu.data     484482821                       # Total bandwidth to/from this memory (bytes/s)
system.ruby.phys_mem.bw_total::gpu.ce        14918568                       # Total bandwidth to/from this memory (bytes/s)
system.ruby.phys_mem.bw_total::gpu.shader_cores0.data    294648161                       # Total bandwidth to/from this memory (bytes/s)
system.ruby.phys_mem.bw_total::gpu.shader_cores0.inst       168090                       # Total bandwidth to/from this memory (bytes/s)
system.ruby.phys_mem.bw_total::gpu.shader_cores1.data    239630549                       # Total bandwidth to/from this memory (bytes/s)
system.ruby.phys_mem.bw_total::gpu.shader_cores1.inst       194985                       # Total bandwidth to/from this memory (bytes/s)
system.ruby.phys_mem.bw_total::gpu.shader_cores2.data    239607577                       # Total bandwidth to/from this memory (bytes/s)
system.ruby.phys_mem.bw_total::gpu.shader_cores2.inst       230844                       # Total bandwidth to/from this memory (bytes/s)
system.ruby.phys_mem.bw_total::gpu.shader_cores3.data    296785709                       # Total bandwidth to/from this memory (bytes/s)
system.ruby.phys_mem.bw_total::gpu.shader_cores3.inst       234206                       # Total bandwidth to/from this memory (bytes/s)
system.ruby.phys_mem.bw_total::total       4226436867                       # Total bandwidth to/from this memory (bytes/s)
system.cpu_voltage_domain.voltage                   1                       # Voltage in Volts
system.cpu_clk_domain.clock                       500                       # Clock period in ticks
system.cpu.apic_clk_domain.clock                 8000                       # Clock period in ticks
system.cpu.workload.num_syscalls                   28                       # Number of system calls
system.cpu.numCycles                         14278046                       # number of cpu cycles simulated
system.cpu.numWorkItemsStarted                      1                       # number of work items this cpu started
system.cpu.numWorkItemsCompleted                    1                       # number of work items this cpu completed
system.cpu.committedInsts                     1654272                       # Number of instructions committed
system.cpu.committedOps                       2721481                       # Number of ops (including micro ops) committed
system.cpu.num_int_alu_accesses               1972449                       # Number of integer alu accesses
system.cpu.num_fp_alu_accesses                1026044                       # Number of float alu accesses
system.cpu.num_func_calls                       31638                       # number of times a function call or return occured
system.cpu.num_conditional_control_insts       149022                       # number of instructions that are conditional controls
system.cpu.num_int_insts                      1972449                       # number of integer instructions
system.cpu.num_fp_insts                       1026044                       # number of float instructions
system.cpu.num_int_register_reads             3732980                       # number of times the integer registers were read
system.cpu.num_int_register_writes            1433353                       # number of times the integer registers were written
system.cpu.num_fp_register_reads              1957934                       # number of times the floating registers were read
system.cpu.num_fp_register_writes              903313                       # number of times the floating registers were written
system.cpu.num_cc_register_reads              1055516                       # number of times the CC registers were read
system.cpu.num_cc_register_writes              673008                       # number of times the CC registers were written
system.cpu.num_mem_refs                        477574                       # number of memory refs
system.cpu.num_load_insts                      312273                       # Number of load instructions
system.cpu.num_store_insts                     165301                       # Number of store instructions
system.cpu.num_idle_cycles               2076717.719709                       # Number of idle cycles
system.cpu.num_busy_cycles               12201328.280291                       # Number of busy cycles
system.cpu.not_idle_fraction                 0.854552                       # Percentage of non-idle cycles
system.cpu.idle_fraction                     0.145448                       # Percentage of idle cycles
system.cpu.Branches                            196318                       # Number of branches fetched
system.cpu.op_class::No_OpClass                  2257      0.08%      0.08% # Class of executed instruction
system.cpu.op_class::IntAlu                   1716775     63.08%     63.17% # Class of executed instruction
system.cpu.op_class::IntMult                    18031      0.66%     63.83% # Class of executed instruction
system.cpu.op_class::IntDiv                      1263      0.05%     63.87% # Class of executed instruction
system.cpu.op_class::FloatAdd                  505581     18.58%     82.45% # Class of executed instruction
system.cpu.op_class::FloatCmp                       0      0.00%     82.45% # Class of executed instruction
system.cpu.op_class::FloatCvt                       0      0.00%     82.45% # Class of executed instruction
system.cpu.op_class::FloatMult                      0      0.00%     82.45% # Class of executed instruction
system.cpu.op_class::FloatDiv                       0      0.00%     82.45% # Class of executed instruction
system.cpu.op_class::FloatSqrt                      0      0.00%     82.45% # Class of executed instruction
system.cpu.op_class::SimdAdd                        0      0.00%     82.45% # Class of executed instruction
system.cpu.op_class::SimdAddAcc                     0      0.00%     82.45% # Class of executed instruction
system.cpu.op_class::SimdAlu                        0      0.00%     82.45% # Class of executed instruction
system.cpu.op_class::SimdCmp                        0      0.00%     82.45% # Class of executed instruction
system.cpu.op_class::SimdCvt                        0      0.00%     82.45% # Class of executed instruction
system.cpu.op_class::SimdMisc                       0      0.00%     82.45% # Class of executed instruction
system.cpu.op_class::SimdMult                       0      0.00%     82.45% # Class of executed instruction
system.cpu.op_class::SimdMultAcc                    0      0.00%     82.45% # Class of executed instruction
system.cpu.op_class::SimdShift                      0      0.00%     82.45% # Class of executed instruction
system.cpu.op_class::SimdShiftAcc                   0      0.00%     82.45% # Class of executed instruction
system.cpu.op_class::SimdSqrt                       0      0.00%     82.45% # Class of executed instruction
system.cpu.op_class::SimdFloatAdd                   0      0.00%     82.45% # Class of executed instruction
system.cpu.op_class::SimdFloatAlu                   0      0.00%     82.45% # Class of executed instruction
system.cpu.op_class::SimdFloatCmp                   0      0.00%     82.45% # Class of executed instruction
system.cpu.op_class::SimdFloatCvt                   0      0.00%     82.45% # Class of executed instruction
system.cpu.op_class::SimdFloatDiv                   0      0.00%     82.45% # Class of executed instruction
system.cpu.op_class::SimdFloatMisc                  0      0.00%     82.45% # Class of executed instruction
system.cpu.op_class::SimdFloatMult                  0      0.00%     82.45% # Class of executed instruction
system.cpu.op_class::SimdFloatMultAcc               0      0.00%     82.45% # Class of executed instruction
system.cpu.op_class::SimdFloatSqrt                  0      0.00%     82.45% # Class of executed instruction
system.cpu.op_class::MemRead                   312273     11.47%     93.93% # Class of executed instruction
system.cpu.op_class::MemWrite                  165301      6.07%    100.00% # Class of executed instruction
system.cpu.op_class::IprAccess                      0      0.00%    100.00% # Class of executed instruction
system.cpu.op_class::InstPrefetch                   0      0.00%    100.00% # Class of executed instruction
system.cpu.op_class::total                    2721481                       # Class of executed instruction
system.gpu.clk_domain.voltage_domain.voltage            1                       # Voltage in Volts
system.gpu.clk_domain.clock                      1429                       # Clock period in ticks
system.gpu.dram_wrapper.clk_domain.clock          541                       # Clock period in ticks
system.gpu.icnt_wrapper.clk_domain.clock         2858                       # Clock period in ticks
system.ruby.delayHist::bucket_size                128                       # delay histogram for all message
system.ruby.delayHist::max_bucket                1279                       # delay histogram for all message
system.ruby.delayHist::samples                 247511                       # delay histogram for all message
system.ruby.delayHist::mean                  5.971593                       # delay histogram for all message
system.ruby.delayHist::stdev                39.115699                       # delay histogram for all message
system.ruby.delayHist                    |      245267     99.09%     99.09% |        1073      0.43%     99.53% |         484      0.20%     99.72% |         286      0.12%     99.84% |         158      0.06%     99.90% |          99      0.04%     99.94% |          90      0.04%     99.98% |          22      0.01%     99.99% |          28      0.01%    100.00% |           4      0.00%    100.00% # delay histogram for all message
system.ruby.delayHist::total                   247511                       # delay histogram for all message
system.ruby.outstanding_req_hist::bucket_size           16                      
system.ruby.outstanding_req_hist::max_bucket          159                      
system.ruby.outstanding_req_hist::samples      3069123                      
system.ruby.outstanding_req_hist::mean       1.118378                      
system.ruby.outstanding_req_hist::gmean      1.041074                      
system.ruby.outstanding_req_hist::stdev      1.556481                      
system.ruby.outstanding_req_hist         |     3064495     99.85%     99.85% |        2648      0.09%     99.94% |         915      0.03%     99.97% |         666      0.02%     99.99% |         300      0.01%    100.00% |          99      0.00%    100.00% |           0      0.00%    100.00% |           0      0.00%    100.00% |           0      0.00%    100.00% |           0      0.00%    100.00%
system.ruby.outstanding_req_hist::total       3069123                      
system.ruby.latency_hist::bucket_size            1024                      
system.ruby.latency_hist::max_bucket            10239                      
system.ruby.latency_hist::samples             3069123                      
system.ruby.latency_hist::mean               6.306935                      
system.ruby.latency_hist::gmean              3.246770                      
system.ruby.latency_hist::stdev             59.138454                      
system.ruby.latency_hist                 |     3068177     99.97%     99.97% |         399      0.01%     99.98% |         160      0.01%     99.99% |         179      0.01%     99.99% |         130      0.00%    100.00% |          57      0.00%    100.00% |          19      0.00%    100.00% |           2      0.00%    100.00% |           0      0.00%    100.00% |           0      0.00%    100.00%
system.ruby.latency_hist::total               3069123                      
system.ruby.hit_latency_hist::bucket_size           64                      
system.ruby.hit_latency_hist::max_bucket          639                      
system.ruby.hit_latency_hist::samples         2944884                      
system.ruby.hit_latency_hist::mean           2.940373                      
system.ruby.hit_latency_hist::gmean          2.878123                      
system.ruby.hit_latency_hist::stdev          2.452982                      
system.ruby.hit_latency_hist             |     2944713     99.99%     99.99% |          38      0.00%    100.00% |          29      0.00%    100.00% |          21      0.00%    100.00% |          16      0.00%    100.00% |          17      0.00%    100.00% |          21      0.00%    100.00% |           7      0.00%    100.00% |          17      0.00%    100.00% |           5      0.00%    100.00%
system.ruby.hit_latency_hist::total           2944884                      
system.ruby.miss_latency_hist::bucket_size         1024                      
system.ruby.miss_latency_hist::max_bucket        10239                      
system.ruby.miss_latency_hist::samples         124239                      
system.ruby.miss_latency_hist::mean         86.105812                      
system.ruby.miss_latency_hist::gmean        56.511739                      
system.ruby.miss_latency_hist::stdev       282.166627                      
system.ruby.miss_latency_hist            |      123293     99.24%     99.24% |         399      0.32%     99.56% |         160      0.13%     99.69% |         179      0.14%     99.83% |         130      0.10%     99.94% |          57      0.05%     99.98% |          19      0.02%    100.00% |           2      0.00%    100.00% |           0      0.00%    100.00% |           0      0.00%    100.00%
system.ruby.miss_latency_hist::total           124239                      
system.ruby.L1Cache.incomplete_times           115899                      
system.ruby.Directory.incomplete_times           8339                      
system.gpu.shader_mmu.numPagefaults                 0                       # Number of Pagefaults
system.gpu.shader_mmu.numPagewalks                 28                       # Number of Pagewalks
system.gpu.shader_mmu.totalRequests                28                       # Total number of requests
system.gpu.shader_mmu.retryFailures                 0                       # Times the retry walk after a pagefault failed
system.gpu.shader_mmu.l2hits                        0                       # Hits in the shared L2
system.gpu.shader_mmu.prefetchHits                  0                       # Number of prefetch hits
system.gpu.shader_mmu.numPrefetches                 0                       # Number of prefetchs
system.gpu.shader_mmu.prefetchFaults                0                       # Number of faults caused by prefetches
system.gpu.shader_mmu.pagefaultLatency::samples            0                       # Latency to complete the pagefault
system.gpu.shader_mmu.pagefaultLatency::mean          nan                       # Latency to complete the pagefault
system.gpu.shader_mmu.pagefaultLatency::gmean          nan                       # Latency to complete the pagefault
system.gpu.shader_mmu.pagefaultLatency::stdev          nan                       # Latency to complete the pagefault
system.gpu.shader_mmu.pagefaultLatency::0            0                       # Latency to complete the pagefault
system.gpu.shader_mmu.pagefaultLatency::1            0                       # Latency to complete the pagefault
system.gpu.shader_mmu.pagefaultLatency::2            0                       # Latency to complete the pagefault
system.gpu.shader_mmu.pagefaultLatency::3            0                       # Latency to complete the pagefault
system.gpu.shader_mmu.pagefaultLatency::4            0                       # Latency to complete the pagefault
system.gpu.shader_mmu.pagefaultLatency::5            0                       # Latency to complete the pagefault
system.gpu.shader_mmu.pagefaultLatency::6            0                       # Latency to complete the pagefault
system.gpu.shader_mmu.pagefaultLatency::7            0                       # Latency to complete the pagefault
system.gpu.shader_mmu.pagefaultLatency::8            0                       # Latency to complete the pagefault
system.gpu.shader_mmu.pagefaultLatency::9            0                       # Latency to complete the pagefault
system.gpu.shader_mmu.pagefaultLatency::10            0                       # Latency to complete the pagefault
system.gpu.shader_mmu.pagefaultLatency::11            0                       # Latency to complete the pagefault
system.gpu.shader_mmu.pagefaultLatency::12            0                       # Latency to complete the pagefault
system.gpu.shader_mmu.pagefaultLatency::13            0                       # Latency to complete the pagefault
system.gpu.shader_mmu.pagefaultLatency::14            0                       # Latency to complete the pagefault
system.gpu.shader_mmu.pagefaultLatency::15            0                       # Latency to complete the pagefault
system.gpu.shader_mmu.pagefaultLatency::16            0                       # Latency to complete the pagefault
system.gpu.shader_mmu.pagefaultLatency::17            0                       # Latency to complete the pagefault
system.gpu.shader_mmu.pagefaultLatency::18            0                       # Latency to complete the pagefault
system.gpu.shader_mmu.pagefaultLatency::19            0                       # Latency to complete the pagefault
system.gpu.shader_mmu.pagefaultLatency::20            0                       # Latency to complete the pagefault
system.gpu.shader_mmu.pagefaultLatency::21            0                       # Latency to complete the pagefault
system.gpu.shader_mmu.pagefaultLatency::22            0                       # Latency to complete the pagefault
system.gpu.shader_mmu.pagefaultLatency::23            0                       # Latency to complete the pagefault
system.gpu.shader_mmu.pagefaultLatency::24            0                       # Latency to complete the pagefault
system.gpu.shader_mmu.pagefaultLatency::25            0                       # Latency to complete the pagefault
system.gpu.shader_mmu.pagefaultLatency::26            0                       # Latency to complete the pagefault
system.gpu.shader_mmu.pagefaultLatency::27            0                       # Latency to complete the pagefault
system.gpu.shader_mmu.pagefaultLatency::28            0                       # Latency to complete the pagefault
system.gpu.shader_mmu.pagefaultLatency::29            0                       # Latency to complete the pagefault
system.gpu.shader_mmu.pagefaultLatency::30            0                       # Latency to complete the pagefault
system.gpu.shader_mmu.pagefaultLatency::31            0                       # Latency to complete the pagefault
system.gpu.shader_mmu.pagefaultLatency::total            0                       # Latency to complete the pagefault
system.gpu.shader_mmu.concurrentWalks::samples           28                       # Number of outstanding walks
system.gpu.shader_mmu.concurrentWalks::mean            0                       # Number of outstanding walks
system.gpu.shader_mmu.concurrentWalks::gmean            0                       # Number of outstanding walks
system.gpu.shader_mmu.concurrentWalks::stdev            0                       # Number of outstanding walks
system.gpu.shader_mmu.concurrentWalks::0           28    100.00%    100.00% # Number of outstanding walks
system.gpu.shader_mmu.concurrentWalks::1            0      0.00%    100.00% # Number of outstanding walks
system.gpu.shader_mmu.concurrentWalks::2            0      0.00%    100.00% # Number of outstanding walks
system.gpu.shader_mmu.concurrentWalks::3            0      0.00%    100.00% # Number of outstanding walks
system.gpu.shader_mmu.concurrentWalks::4            0      0.00%    100.00% # Number of outstanding walks
system.gpu.shader_mmu.concurrentWalks::5            0      0.00%    100.00% # Number of outstanding walks
system.gpu.shader_mmu.concurrentWalks::6            0      0.00%    100.00% # Number of outstanding walks
system.gpu.shader_mmu.concurrentWalks::7            0      0.00%    100.00% # Number of outstanding walks
system.gpu.shader_mmu.concurrentWalks::8            0      0.00%    100.00% # Number of outstanding walks
system.gpu.shader_mmu.concurrentWalks::9            0      0.00%    100.00% # Number of outstanding walks
system.gpu.shader_mmu.concurrentWalks::10            0      0.00%    100.00% # Number of outstanding walks
system.gpu.shader_mmu.concurrentWalks::11            0      0.00%    100.00% # Number of outstanding walks
system.gpu.shader_mmu.concurrentWalks::12            0      0.00%    100.00% # Number of outstanding walks
system.gpu.shader_mmu.concurrentWalks::13            0      0.00%    100.00% # Number of outstanding walks
system.gpu.shader_mmu.concurrentWalks::14            0      0.00%    100.00% # Number of outstanding walks
system.gpu.shader_mmu.concurrentWalks::15            0      0.00%    100.00% # Number of outstanding walks
system.gpu.shader_mmu.concurrentWalks::total           28                       # Number of outstanding walks
system.gpu.shader_mmu.pagewalkLatency::samples           28                       # Latency to complete the pagewalk
system.gpu.shader_mmu.pagewalkLatency::mean            0                       # Latency to complete the pagewalk
system.gpu.shader_mmu.pagewalkLatency::gmean            0                       # Latency to complete the pagewalk
system.gpu.shader_mmu.pagewalkLatency::stdev            0                       # Latency to complete the pagewalk
system.gpu.shader_mmu.pagewalkLatency::0           28    100.00%    100.00% # Latency to complete the pagewalk
system.gpu.shader_mmu.pagewalkLatency::1            0      0.00%    100.00% # Latency to complete the pagewalk
system.gpu.shader_mmu.pagewalkLatency::2            0      0.00%    100.00% # Latency to complete the pagewalk
system.gpu.shader_mmu.pagewalkLatency::3            0      0.00%    100.00% # Latency to complete the pagewalk
system.gpu.shader_mmu.pagewalkLatency::4            0      0.00%    100.00% # Latency to complete the pagewalk
system.gpu.shader_mmu.pagewalkLatency::5            0      0.00%    100.00% # Latency to complete the pagewalk
system.gpu.shader_mmu.pagewalkLatency::6            0      0.00%    100.00% # Latency to complete the pagewalk
system.gpu.shader_mmu.pagewalkLatency::7            0      0.00%    100.00% # Latency to complete the pagewalk
system.gpu.shader_mmu.pagewalkLatency::8            0      0.00%    100.00% # Latency to complete the pagewalk
system.gpu.shader_mmu.pagewalkLatency::9            0      0.00%    100.00% # Latency to complete the pagewalk
system.gpu.shader_mmu.pagewalkLatency::10            0      0.00%    100.00% # Latency to complete the pagewalk
system.gpu.shader_mmu.pagewalkLatency::11            0      0.00%    100.00% # Latency to complete the pagewalk
system.gpu.shader_mmu.pagewalkLatency::12            0      0.00%    100.00% # Latency to complete the pagewalk
system.gpu.shader_mmu.pagewalkLatency::13            0      0.00%    100.00% # Latency to complete the pagewalk
system.gpu.shader_mmu.pagewalkLatency::14            0      0.00%    100.00% # Latency to complete the pagewalk
system.gpu.shader_mmu.pagewalkLatency::15            0      0.00%    100.00% # Latency to complete the pagewalk
system.gpu.shader_mmu.pagewalkLatency::16            0      0.00%    100.00% # Latency to complete the pagewalk
system.gpu.shader_mmu.pagewalkLatency::17            0      0.00%    100.00% # Latency to complete the pagewalk
system.gpu.shader_mmu.pagewalkLatency::18            0      0.00%    100.00% # Latency to complete the pagewalk
system.gpu.shader_mmu.pagewalkLatency::19            0      0.00%    100.00% # Latency to complete the pagewalk
system.gpu.shader_mmu.pagewalkLatency::20            0      0.00%    100.00% # Latency to complete the pagewalk
system.gpu.shader_mmu.pagewalkLatency::21            0      0.00%    100.00% # Latency to complete the pagewalk
system.gpu.shader_mmu.pagewalkLatency::22            0      0.00%    100.00% # Latency to complete the pagewalk
system.gpu.shader_mmu.pagewalkLatency::23            0      0.00%    100.00% # Latency to complete the pagewalk
system.gpu.shader_mmu.pagewalkLatency::24            0      0.00%    100.00% # Latency to complete the pagewalk
system.gpu.shader_mmu.pagewalkLatency::25            0      0.00%    100.00% # Latency to complete the pagewalk
system.gpu.shader_mmu.pagewalkLatency::26            0      0.00%    100.00% # Latency to complete the pagewalk
system.gpu.shader_mmu.pagewalkLatency::27            0      0.00%    100.00% # Latency to complete the pagewalk
system.gpu.shader_mmu.pagewalkLatency::28            0      0.00%    100.00% # Latency to complete the pagewalk
system.gpu.shader_mmu.pagewalkLatency::29            0      0.00%    100.00% # Latency to complete the pagewalk
system.gpu.shader_mmu.pagewalkLatency::30            0      0.00%    100.00% # Latency to complete the pagewalk
system.gpu.shader_mmu.pagewalkLatency::31            0      0.00%    100.00% # Latency to complete the pagewalk
system.gpu.shader_mmu.pagewalkLatency::total           28                       # Latency to complete the pagewalk
system.gpu.kernels_started                          9                       # Number of kernels started
system.gpu.kernels_completed                        9                       # Number of kernels completed
system.gpu.ce.device_dtb.hits                       0                       # Number of hits in this TLB
system.gpu.ce.device_dtb.misses                     0                       # Number of misses in this TLB
system.gpu.ce.device_dtb.hitRate                  nan                       # Hit rate for this TLB
system.gpu.ce.host_dtb.hits                       402                       # Number of hits in this TLB
system.gpu.ce.host_dtb.misses                      28                       # Number of misses in this TLB
system.gpu.ce.host_dtb.hitRate               0.934884                       # Hit rate for this TLB
system.gpu.shader_cores0.itb.hits                   0                       # Number of hits in this TLB
system.gpu.shader_cores0.itb.misses                 0                       # Number of misses in this TLB
system.gpu.shader_cores0.itb.hitRate              nan                       # Hit rate for this TLB
system.gpu.shader_cores0.local_loads                0                       # Number of loads from local space
system.gpu.shader_cores0.local_stores               0                       # Number of stores to local space
system.gpu.shader_cores0.shared_loads          363407                       # Number of loads from shared space
system.gpu.shader_cores0.shared_stores          28398                       # Number of stores to shared space
system.gpu.shader_cores0.param_kernel_loads       744544                       # Number of loads from kernel parameter space
system.gpu.shader_cores0.param_local_loads            0                       # Number of loads from local parameter space
system.gpu.shader_cores0.param_local_stores            0                       # Number of stores to local parameter space
system.gpu.shader_cores0.const_loads                0                       # Number of loads from constant space
system.gpu.shader_cores0.tex_loads                  0                       # Number of loads from texture space
system.gpu.shader_cores0.global_loads         1834513                       # Number of loads from global space
system.gpu.shader_cores0.global_stores           8603                       # Number of stores to global space
system.gpu.shader_cores0.surf_loads                 0                       # Number of loads from surface space
system.gpu.shader_cores0.generic_loads              0                       # Number of loads from generic spaces (global, shared, local)
system.gpu.shader_cores0.generic_stores             0                       # Number of stores to generic spaces (global, shared, local)
system.gpu.shader_cores0.inst_cache_requests           50                       # Number of instruction cache requests sent
system.gpu.shader_cores0.inst_cache_retries            0                       # Number of instruction cache retries
system.gpu.shader_cores0.inst_counts::0             0                       # Inst counts: 1: ALU, 2: MAD, 3: CTRL, 4: SFU, 5: MEM, 6: TEX, 7: NOP
system.gpu.shader_cores0.inst_counts::1      11409485                       # Inst counts: 1: ALU, 2: MAD, 3: CTRL, 4: SFU, 5: MEM, 6: TEX, 7: NOP
system.gpu.shader_cores0.inst_counts::2       1826550                       # Inst counts: 1: ALU, 2: MAD, 3: CTRL, 4: SFU, 5: MEM, 6: TEX, 7: NOP
system.gpu.shader_cores0.inst_counts::3       1638147                       # Inst counts: 1: ALU, 2: MAD, 3: CTRL, 4: SFU, 5: MEM, 6: TEX, 7: NOP
system.gpu.shader_cores0.inst_counts::4        247872                       # Inst counts: 1: ALU, 2: MAD, 3: CTRL, 4: SFU, 5: MEM, 6: TEX, 7: NOP
system.gpu.shader_cores0.inst_counts::5       2979465                       # Inst counts: 1: ALU, 2: MAD, 3: CTRL, 4: SFU, 5: MEM, 6: TEX, 7: NOP
system.gpu.shader_cores0.inst_counts::6             0                       # Inst counts: 1: ALU, 2: MAD, 3: CTRL, 4: SFU, 5: MEM, 6: TEX, 7: NOP
system.gpu.shader_cores0.inst_counts::7             0                       # Inst counts: 1: ALU, 2: MAD, 3: CTRL, 4: SFU, 5: MEM, 6: TEX, 7: NOP
system.gpu.shader_cores0.activeCycles          689218                       # Number of cycles this shader was executing a CTA
system.gpu.shader_cores0.notStalledCycles       462701                       # Number of cycles this shader was actually executing at least one instance
system.gpu.shader_cores0.instInstances       18101519                       # Total instructions executed by all PEs in the core
system.gpu.shader_cores0.instPerCycle       26.263851                       # Instruction instances per cycle
system.gpu.shader_cores0.kernels_completed            8                       # Number of kernels completed
system.gpu.shader_cores0.lsq.data_tlb.hits            0                       # Number of hits in this TLB
system.gpu.shader_cores0.lsq.data_tlb.misses            0                       # Number of misses in this TLB
system.gpu.shader_cores0.lsq.data_tlb.hitRate          nan                       # Hit rate for this TLB
system.gpu.shader_cores0.lsq.warpInstBufActive::samples   -697061726                       # Histogram of number of active warp inst buffers at a given time
system.gpu.shader_cores0.lsq.warpInstBufActive::mean    -4.492655                       # Histogram of number of active warp inst buffers at a given time
system.gpu.shader_cores0.lsq.warpInstBufActive::gmean          nan                       # Histogram of number of active warp inst buffers at a given time
system.gpu.shader_cores0.lsq.warpInstBufActive::stdev          nan                       # Histogram of number of active warp inst buffers at a given time
system.gpu.shader_cores0.lsq.warpInstBufActive::0  -1508113540    216.35%    216.35% # Histogram of number of active warp inst buffers at a given time
system.gpu.shader_cores0.lsq.warpInstBufActive::1    253141634    -36.32%    180.04% # Histogram of number of active warp inst buffers at a given time
system.gpu.shader_cores0.lsq.warpInstBufActive::2    228559976    -32.79%    147.25% # Histogram of number of active warp inst buffers at a given time
system.gpu.shader_cores0.lsq.warpInstBufActive::3    155579517    -22.32%    124.93% # Histogram of number of active warp inst buffers at a given time
system.gpu.shader_cores0.lsq.warpInstBufActive::4     87917796    -12.61%    112.32% # Histogram of number of active warp inst buffers at a given time
system.gpu.shader_cores0.lsq.warpInstBufActive::5     37998539     -5.45%    106.87% # Histogram of number of active warp inst buffers at a given time
system.gpu.shader_cores0.lsq.warpInstBufActive::6     13875590     -1.99%    104.87% # Histogram of number of active warp inst buffers at a given time
system.gpu.shader_cores0.lsq.warpInstBufActive::7      5035796     -0.72%    104.15% # Histogram of number of active warp inst buffers at a given time
system.gpu.shader_cores0.lsq.warpInstBufActive::8      1949156     -0.28%    103.87% # Histogram of number of active warp inst buffers at a given time
system.gpu.shader_cores0.lsq.warpInstBufActive::9       388688     -0.06%    103.82% # Histogram of number of active warp inst buffers at a given time
system.gpu.shader_cores0.lsq.warpInstBufActive::10       514440     -0.07%    103.74% # Histogram of number of active warp inst buffers at a given time
system.gpu.shader_cores0.lsq.warpInstBufActive::11       508724     -0.07%    103.67% # Histogram of number of active warp inst buffers at a given time
system.gpu.shader_cores0.lsq.warpInstBufActive::12       675917     -0.10%    103.57% # Histogram of number of active warp inst buffers at a given time
system.gpu.shader_cores0.lsq.warpInstBufActive::13       272939     -0.04%    103.53% # Histogram of number of active warp inst buffers at a given time
system.gpu.shader_cores0.lsq.warpInstBufActive::14       287229     -0.04%    103.49% # Histogram of number of active warp inst buffers at a given time
system.gpu.shader_cores0.lsq.warpInstBufActive::15       382972     -0.05%    103.44% # Histogram of number of active warp inst buffers at a given time
system.gpu.shader_cores0.lsq.warpInstBufActive::16       304377     -0.04%    103.39% # Histogram of number of active warp inst buffers at a given time
system.gpu.shader_cores0.lsq.warpInstBufActive::17       284371     -0.04%    103.35% # Histogram of number of active warp inst buffers at a given time
system.gpu.shader_cores0.lsq.warpInstBufActive::18       225782     -0.03%    103.32% # Histogram of number of active warp inst buffers at a given time
system.gpu.shader_cores0.lsq.warpInstBufActive::19       208634     -0.03%    103.29% # Histogram of number of active warp inst buffers at a given time
system.gpu.shader_cores0.lsq.warpInstBufActive::20       258649     -0.04%    103.25% # Histogram of number of active warp inst buffers at a given time
system.gpu.shader_cores0.lsq.warpInstBufActive::21       220066     -0.03%    103.22% # Histogram of number of active warp inst buffers at a given time
system.gpu.shader_cores0.lsq.warpInstBufActive::22       201489     -0.03%    103.19% # Histogram of number of active warp inst buffers at a given time
system.gpu.shader_cores0.lsq.warpInstBufActive::23       334386     -0.05%    103.15% # Histogram of number of active warp inst buffers at a given time
system.gpu.shader_cores0.lsq.warpInstBufActive::24       265794     -0.04%    103.11% # Histogram of number of active warp inst buffers at a given time
system.gpu.shader_cores0.lsq.warpInstBufActive::25       142900     -0.02%    103.09% # Histogram of number of active warp inst buffers at a given time
system.gpu.shader_cores0.lsq.warpInstBufActive::26       192915     -0.03%    103.06% # Histogram of number of active warp inst buffers at a given time
system.gpu.shader_cores0.lsq.warpInstBufActive::27        98601     -0.01%    103.04% # Histogram of number of active warp inst buffers at a given time
system.gpu.shader_cores0.lsq.warpInstBufActive::28       115749     -0.02%    103.03% # Histogram of number of active warp inst buffers at a given time
system.gpu.shader_cores0.lsq.warpInstBufActive::29       102888     -0.01%    103.01% # Histogram of number of active warp inst buffers at a given time
system.gpu.shader_cores0.lsq.warpInstBufActive::30       308664     -0.04%    102.97% # Histogram of number of active warp inst buffers at a given time
system.gpu.shader_cores0.lsq.warpInstBufActive::31       337244     -0.05%    102.92% # Histogram of number of active warp inst buffers at a given time
system.gpu.shader_cores0.lsq.warpInstBufActive::32       195773     -0.03%    102.89% # Histogram of number of active warp inst buffers at a given time
system.gpu.shader_cores0.lsq.warpInstBufActive::33       528730     -0.08%    102.82% # Histogram of number of active warp inst buffers at a given time
system.gpu.shader_cores0.lsq.warpInstBufActive::34       554452     -0.08%    102.74% # Histogram of number of active warp inst buffers at a given time
system.gpu.shader_cores0.lsq.warpInstBufActive::35        37154     -0.01%    102.73% # Histogram of number of active warp inst buffers at a given time
system.gpu.shader_cores0.lsq.warpInstBufActive::36        34296     -0.00%    102.73% # Histogram of number of active warp inst buffers at a given time
system.gpu.shader_cores0.lsq.warpInstBufActive::37       531588     -0.08%    102.65% # Histogram of number of active warp inst buffers at a given time
system.gpu.shader_cores0.lsq.warpInstBufActive::38       545878     -0.08%    102.57% # Histogram of number of active warp inst buffers at a given time
system.gpu.shader_cores0.lsq.warpInstBufActive::39       192915     -0.03%    102.54% # Histogram of number of active warp inst buffers at a given time
system.gpu.shader_cores0.lsq.warpInstBufActive::40       132897     -0.02%    102.53% # Histogram of number of active warp inst buffers at a given time
system.gpu.shader_cores0.lsq.warpInstBufActive::41       104317     -0.01%    102.51% # Histogram of number of active warp inst buffers at a given time
system.gpu.shader_cores0.lsq.warpInstBufActive::42       107175     -0.02%    102.50% # Histogram of number of active warp inst buffers at a given time
system.gpu.shader_cores0.lsq.warpInstBufActive::43       455851     -0.07%    102.43% # Histogram of number of active warp inst buffers at a given time
system.gpu.shader_cores0.lsq.warpInstBufActive::44       202918     -0.03%    102.40% # Histogram of number of active warp inst buffers at a given time
system.gpu.shader_cores0.lsq.warpInstBufActive::45        52873     -0.01%    102.39% # Histogram of number of active warp inst buffers at a given time
system.gpu.shader_cores0.lsq.warpInstBufActive::46        37154     -0.01%    102.39% # Histogram of number of active warp inst buffers at a given time
system.gpu.shader_cores0.lsq.warpInstBufActive::47        20006     -0.00%    102.39% # Histogram of number of active warp inst buffers at a given time
system.gpu.shader_cores0.lsq.warpInstBufActive::48       417268     -0.06%    102.33% # Histogram of number of active warp inst buffers at a given time
system.gpu.shader_cores0.lsq.warpInstBufActive::49       528730     -0.08%    102.25% # Histogram of number of active warp inst buffers at a given time
system.gpu.shader_cores0.lsq.warpInstBufActive::50       408694     -0.06%    102.19% # Histogram of number of active warp inst buffers at a given time
system.gpu.shader_cores0.lsq.warpInstBufActive::51       401549     -0.06%    102.13% # Histogram of number of active warp inst buffers at a given time
system.gpu.shader_cores0.lsq.warpInstBufActive::52       144329     -0.02%    102.11% # Histogram of number of active warp inst buffers at a given time
system.gpu.shader_cores0.lsq.warpInstBufActive::53        57160     -0.01%    102.10% # Histogram of number of active warp inst buffers at a given time
system.gpu.shader_cores0.lsq.warpInstBufActive::54        28580     -0.00%    102.10% # Histogram of number of active warp inst buffers at a given time
system.gpu.shader_cores0.lsq.warpInstBufActive::55       150045     -0.02%    102.08% # Histogram of number of active warp inst buffers at a given time
system.gpu.shader_cores0.lsq.warpInstBufActive::56       417268     -0.06%    102.02% # Histogram of number of active warp inst buffers at a given time
system.gpu.shader_cores0.lsq.warpInstBufActive::57       417268     -0.06%    101.96% # Histogram of number of active warp inst buffers at a given time
system.gpu.shader_cores0.lsq.warpInstBufActive::58       421555     -0.06%    101.90% # Histogram of number of active warp inst buffers at a given time
system.gpu.shader_cores0.lsq.warpInstBufActive::59       437274     -0.06%    101.84% # Histogram of number of active warp inst buffers at a given time
system.gpu.shader_cores0.lsq.warpInstBufActive::60       524443     -0.08%    101.76% # Histogram of number of active warp inst buffers at a given time
system.gpu.shader_cores0.lsq.warpInstBufActive::61       494434     -0.07%    101.69% # Histogram of number of active warp inst buffers at a given time
system.gpu.shader_cores0.lsq.warpInstBufActive::62        81453     -0.01%    101.68% # Histogram of number of active warp inst buffers at a given time
system.gpu.shader_cores0.lsq.warpInstBufActive::63       500150     -0.07%    101.61% # Histogram of number of active warp inst buffers at a given time
system.gpu.shader_cores0.lsq.warpInstBufActive::64     11196215     -1.61%    100.00% # Histogram of number of active warp inst buffers at a given time
system.gpu.shader_cores0.lsq.warpInstBufActive::total   -697061726                       # Histogram of number of active warp inst buffers at a given time
system.gpu.shader_cores0.lsq.cacheAccesses     0.175730                       # Average number of concurrent outstanding cache accesses
system.gpu.shader_cores0.lsq.writebackBlockedCycles        12799                       # Number of cycles blocked for core writeback stage
system.gpu.shader_cores0.lsq.mshrHitQueued        10630                       # Number of hits on blocked lines in MSHRs
system.gpu.shader_cores0.lsq.mshrsFullCycles            0                       # Number of cycles stalled waiting for an MSHR
system.gpu.shader_cores0.lsq.mshrsFullCount            0                       # Number of times MSHRs filled
system.gpu.shader_cores0.lsq.warpCoalescedAccesses::samples        59263                       # Number of coalesced accesses per warp instruction
system.gpu.shader_cores0.lsq.warpCoalescedAccesses::mean     1.079493                       # Number of coalesced accesses per warp instruction
system.gpu.shader_cores0.lsq.warpCoalescedAccesses::gmean     1.026497                       # Number of coalesced accesses per warp instruction
system.gpu.shader_cores0.lsq.warpCoalescedAccesses::stdev     0.905051                       # Number of coalesced accesses per warp instruction
system.gpu.shader_cores0.lsq.warpCoalescedAccesses::0            0      0.00%      0.00% # Number of coalesced accesses per warp instruction
system.gpu.shader_cores0.lsq.warpCoalescedAccesses::1        58153     98.13%     98.13% # Number of coalesced accesses per warp instruction
system.gpu.shader_cores0.lsq.warpCoalescedAccesses::2          334      0.56%     98.69% # Number of coalesced accesses per warp instruction
system.gpu.shader_cores0.lsq.warpCoalescedAccesses::3          188      0.32%     99.01% # Number of coalesced accesses per warp instruction
system.gpu.shader_cores0.lsq.warpCoalescedAccesses::4          139      0.23%     99.24% # Number of coalesced accesses per warp instruction
system.gpu.shader_cores0.lsq.warpCoalescedAccesses::5          112      0.19%     99.43% # Number of coalesced accesses per warp instruction
system.gpu.shader_cores0.lsq.warpCoalescedAccesses::6           94      0.16%     99.59% # Number of coalesced accesses per warp instruction
system.gpu.shader_cores0.lsq.warpCoalescedAccesses::7           69      0.12%     99.71% # Number of coalesced accesses per warp instruction
system.gpu.shader_cores0.lsq.warpCoalescedAccesses::8           56      0.09%     99.80% # Number of coalesced accesses per warp instruction
system.gpu.shader_cores0.lsq.warpCoalescedAccesses::9           17      0.03%     99.83% # Number of coalesced accesses per warp instruction
system.gpu.shader_cores0.lsq.warpCoalescedAccesses::10            0      0.00%     99.83% # Number of coalesced accesses per warp instruction
system.gpu.shader_cores0.lsq.warpCoalescedAccesses::11           53      0.09%     99.92% # Number of coalesced accesses per warp instruction
system.gpu.shader_cores0.lsq.warpCoalescedAccesses::12            0      0.00%     99.92% # Number of coalesced accesses per warp instruction
system.gpu.shader_cores0.lsq.warpCoalescedAccesses::13            0      0.00%     99.92% # Number of coalesced accesses per warp instruction
system.gpu.shader_cores0.lsq.warpCoalescedAccesses::14            0      0.00%     99.92% # Number of coalesced accesses per warp instruction
system.gpu.shader_cores0.lsq.warpCoalescedAccesses::15            0      0.00%     99.92% # Number of coalesced accesses per warp instruction
system.gpu.shader_cores0.lsq.warpCoalescedAccesses::16            0      0.00%     99.92% # Number of coalesced accesses per warp instruction
system.gpu.shader_cores0.lsq.warpCoalescedAccesses::17            0      0.00%     99.92% # Number of coalesced accesses per warp instruction
system.gpu.shader_cores0.lsq.warpCoalescedAccesses::18            0      0.00%     99.92% # Number of coalesced accesses per warp instruction
system.gpu.shader_cores0.lsq.warpCoalescedAccesses::19            9      0.02%     99.93% # Number of coalesced accesses per warp instruction
system.gpu.shader_cores0.lsq.warpCoalescedAccesses::20            0      0.00%     99.93% # Number of coalesced accesses per warp instruction
system.gpu.shader_cores0.lsq.warpCoalescedAccesses::21            3      0.01%     99.94% # Number of coalesced accesses per warp instruction
system.gpu.shader_cores0.lsq.warpCoalescedAccesses::22            6      0.01%     99.95% # Number of coalesced accesses per warp instruction
system.gpu.shader_cores0.lsq.warpCoalescedAccesses::23            0      0.00%     99.95% # Number of coalesced accesses per warp instruction
system.gpu.shader_cores0.lsq.warpCoalescedAccesses::24            0      0.00%     99.95% # Number of coalesced accesses per warp instruction
system.gpu.shader_cores0.lsq.warpCoalescedAccesses::25            6      0.01%     99.96% # Number of coalesced accesses per warp instruction
system.gpu.shader_cores0.lsq.warpCoalescedAccesses::26            3      0.01%     99.96% # Number of coalesced accesses per warp instruction
system.gpu.shader_cores0.lsq.warpCoalescedAccesses::27            0      0.00%     99.96% # Number of coalesced accesses per warp instruction
system.gpu.shader_cores0.lsq.warpCoalescedAccesses::28            0      0.00%     99.96% # Number of coalesced accesses per warp instruction
system.gpu.shader_cores0.lsq.warpCoalescedAccesses::29            0      0.00%     99.96% # Number of coalesced accesses per warp instruction
system.gpu.shader_cores0.lsq.warpCoalescedAccesses::30            6      0.01%     99.97% # Number of coalesced accesses per warp instruction
system.gpu.shader_cores0.lsq.warpCoalescedAccesses::31           12      0.02%     99.99% # Number of coalesced accesses per warp instruction
system.gpu.shader_cores0.lsq.warpCoalescedAccesses::32            3      0.01%    100.00% # Number of coalesced accesses per warp instruction
system.gpu.shader_cores0.lsq.warpCoalescedAccesses::total        59263                       # Number of coalesced accesses per warp instruction
system.gpu.shader_cores0.lsq.warpLatencyRead::samples        58420                       # Latency in cycles for whole warp to finish the read
system.gpu.shader_cores0.lsq.warpLatencyRead::mean    28.729887                       # Latency in cycles for whole warp to finish the read
system.gpu.shader_cores0.lsq.warpLatencyRead::gmean    20.284718                       # Latency in cycles for whole warp to finish the read
system.gpu.shader_cores0.lsq.warpLatencyRead::stdev   184.756669                       # Latency in cycles for whole warp to finish the read
system.gpu.shader_cores0.lsq.warpLatencyRead::0-1023        58356     99.89%     99.89% # Latency in cycles for whole warp to finish the read
system.gpu.shader_cores0.lsq.warpLatencyRead::1024-2047           24      0.04%     99.93% # Latency in cycles for whole warp to finish the read
system.gpu.shader_cores0.lsq.warpLatencyRead::2048-3071            0      0.00%     99.93% # Latency in cycles for whole warp to finish the read
system.gpu.shader_cores0.lsq.warpLatencyRead::3072-4095            0      0.00%     99.93% # Latency in cycles for whole warp to finish the read
system.gpu.shader_cores0.lsq.warpLatencyRead::4096-5119            5      0.01%     99.94% # Latency in cycles for whole warp to finish the read
system.gpu.shader_cores0.lsq.warpLatencyRead::5120-6143           12      0.02%     99.96% # Latency in cycles for whole warp to finish the read
system.gpu.shader_cores0.lsq.warpLatencyRead::6144-7167            7      0.01%     99.97% # Latency in cycles for whole warp to finish the read
system.gpu.shader_cores0.lsq.warpLatencyRead::7168-8191            6      0.01%     99.98% # Latency in cycles for whole warp to finish the read
system.gpu.shader_cores0.lsq.warpLatencyRead::8192-9215            9      0.02%    100.00% # Latency in cycles for whole warp to finish the read
system.gpu.shader_cores0.lsq.warpLatencyRead::9216-10239            1      0.00%    100.00% # Latency in cycles for whole warp to finish the read
system.gpu.shader_cores0.lsq.warpLatencyRead::10240-11263            0      0.00%    100.00% # Latency in cycles for whole warp to finish the read
system.gpu.shader_cores0.lsq.warpLatencyRead::11264-12287            0      0.00%    100.00% # Latency in cycles for whole warp to finish the read
system.gpu.shader_cores0.lsq.warpLatencyRead::12288-13311            0      0.00%    100.00% # Latency in cycles for whole warp to finish the read
system.gpu.shader_cores0.lsq.warpLatencyRead::13312-14335            0      0.00%    100.00% # Latency in cycles for whole warp to finish the read
system.gpu.shader_cores0.lsq.warpLatencyRead::14336-15359            0      0.00%    100.00% # Latency in cycles for whole warp to finish the read
system.gpu.shader_cores0.lsq.warpLatencyRead::15360-16383            0      0.00%    100.00% # Latency in cycles for whole warp to finish the read
system.gpu.shader_cores0.lsq.warpLatencyRead::total        58420                       # Latency in cycles for whole warp to finish the read
system.gpu.shader_cores0.lsq.warpLatencyWrite::samples          792                       # Latency in cycles for whole warp to finish the write
system.gpu.shader_cores0.lsq.warpLatencyWrite::mean   276.002525                       # Latency in cycles for whole warp to finish the write
system.gpu.shader_cores0.lsq.warpLatencyWrite::gmean    50.973146                       # Latency in cycles for whole warp to finish the write
system.gpu.shader_cores0.lsq.warpLatencyWrite::stdev   522.591817                       # Latency in cycles for whole warp to finish the write
system.gpu.shader_cores0.lsq.warpLatencyWrite::0-255          616     77.78%     77.78% # Latency in cycles for whole warp to finish the write
system.gpu.shader_cores0.lsq.warpLatencyWrite::256-511           32      4.04%     81.82% # Latency in cycles for whole warp to finish the write
system.gpu.shader_cores0.lsq.warpLatencyWrite::512-767           19      2.40%     84.22% # Latency in cycles for whole warp to finish the write
system.gpu.shader_cores0.lsq.warpLatencyWrite::768-1023           24      3.03%     87.25% # Latency in cycles for whole warp to finish the write
system.gpu.shader_cores0.lsq.warpLatencyWrite::1024-1279           21      2.65%     89.90% # Latency in cycles for whole warp to finish the write
system.gpu.shader_cores0.lsq.warpLatencyWrite::1280-1535           25      3.16%     93.06% # Latency in cycles for whole warp to finish the write
system.gpu.shader_cores0.lsq.warpLatencyWrite::1536-1791           39      4.92%     97.98% # Latency in cycles for whole warp to finish the write
system.gpu.shader_cores0.lsq.warpLatencyWrite::1792-2047           13      1.64%     99.62% # Latency in cycles for whole warp to finish the write
system.gpu.shader_cores0.lsq.warpLatencyWrite::2048-2303            3      0.38%    100.00% # Latency in cycles for whole warp to finish the write
system.gpu.shader_cores0.lsq.warpLatencyWrite::2304-2559            0      0.00%    100.00% # Latency in cycles for whole warp to finish the write
system.gpu.shader_cores0.lsq.warpLatencyWrite::2560-2815            0      0.00%    100.00% # Latency in cycles for whole warp to finish the write
system.gpu.shader_cores0.lsq.warpLatencyWrite::2816-3071            0      0.00%    100.00% # Latency in cycles for whole warp to finish the write
system.gpu.shader_cores0.lsq.warpLatencyWrite::3072-3327            0      0.00%    100.00% # Latency in cycles for whole warp to finish the write
system.gpu.shader_cores0.lsq.warpLatencyWrite::3328-3583            0      0.00%    100.00% # Latency in cycles for whole warp to finish the write
system.gpu.shader_cores0.lsq.warpLatencyWrite::3584-3839            0      0.00%    100.00% # Latency in cycles for whole warp to finish the write
system.gpu.shader_cores0.lsq.warpLatencyWrite::3840-4095            0      0.00%    100.00% # Latency in cycles for whole warp to finish the write
system.gpu.shader_cores0.lsq.warpLatencyWrite::total          792                       # Latency in cycles for whole warp to finish the write
system.gpu.shader_cores0.lsq.warpLatencyFence::samples          571                       # Latency in cycles for whole warp to finish the fence
system.gpu.shader_cores0.lsq.warpLatencyFence::mean     8.232925                       # Latency in cycles for whole warp to finish the fence
system.gpu.shader_cores0.lsq.warpLatencyFence::gmean     6.384494                       # Latency in cycles for whole warp to finish the fence
system.gpu.shader_cores0.lsq.warpLatencyFence::stdev    19.461975                       # Latency in cycles for whole warp to finish the fence
system.gpu.shader_cores0.lsq.warpLatencyFence::0-15          557     97.55%     97.55% # Latency in cycles for whole warp to finish the fence
system.gpu.shader_cores0.lsq.warpLatencyFence::16-31            4      0.70%     98.25% # Latency in cycles for whole warp to finish the fence
system.gpu.shader_cores0.lsq.warpLatencyFence::32-47            2      0.35%     98.60% # Latency in cycles for whole warp to finish the fence
system.gpu.shader_cores0.lsq.warpLatencyFence::48-63            2      0.35%     98.95% # Latency in cycles for whole warp to finish the fence
system.gpu.shader_cores0.lsq.warpLatencyFence::64-79            2      0.35%     99.30% # Latency in cycles for whole warp to finish the fence
system.gpu.shader_cores0.lsq.warpLatencyFence::80-95            0      0.00%     99.30% # Latency in cycles for whole warp to finish the fence
system.gpu.shader_cores0.lsq.warpLatencyFence::96-111            0      0.00%     99.30% # Latency in cycles for whole warp to finish the fence
system.gpu.shader_cores0.lsq.warpLatencyFence::112-127            0      0.00%     99.30% # Latency in cycles for whole warp to finish the fence
system.gpu.shader_cores0.lsq.warpLatencyFence::128-143            0      0.00%     99.30% # Latency in cycles for whole warp to finish the fence
system.gpu.shader_cores0.lsq.warpLatencyFence::144-159            0      0.00%     99.30% # Latency in cycles for whole warp to finish the fence
system.gpu.shader_cores0.lsq.warpLatencyFence::160-175            0      0.00%     99.30% # Latency in cycles for whole warp to finish the fence
system.gpu.shader_cores0.lsq.warpLatencyFence::176-191            0      0.00%     99.30% # Latency in cycles for whole warp to finish the fence
system.gpu.shader_cores0.lsq.warpLatencyFence::192-207            0      0.00%     99.30% # Latency in cycles for whole warp to finish the fence
system.gpu.shader_cores0.lsq.warpLatencyFence::208-223            1      0.18%     99.47% # Latency in cycles for whole warp to finish the fence
system.gpu.shader_cores0.lsq.warpLatencyFence::224-239            2      0.35%     99.82% # Latency in cycles for whole warp to finish the fence
system.gpu.shader_cores0.lsq.warpLatencyFence::240-255            1      0.18%    100.00% # Latency in cycles for whole warp to finish the fence
system.gpu.shader_cores0.lsq.warpLatencyFence::total          571                       # Latency in cycles for whole warp to finish the fence
system.gpu.shader_cores0.lsq.warpLatencyAtomic::samples           51                       # Latency in cycles for whole warp to finish the atomic
system.gpu.shader_cores0.lsq.warpLatencyAtomic::mean  5682.509804                       # Latency in cycles for whole warp to finish the atomic
system.gpu.shader_cores0.lsq.warpLatencyAtomic::gmean  3851.514439                       # Latency in cycles for whole warp to finish the atomic
system.gpu.shader_cores0.lsq.warpLatencyAtomic::stdev  2963.857502                       # Latency in cycles for whole warp to finish the atomic
system.gpu.shader_cores0.lsq.warpLatencyAtomic::0-1023            4      7.84%      7.84% # Latency in cycles for whole warp to finish the atomic
system.gpu.shader_cores0.lsq.warpLatencyAtomic::1024-2047            4      7.84%     15.69% # Latency in cycles for whole warp to finish the atomic
system.gpu.shader_cores0.lsq.warpLatencyAtomic::2048-3071            3      5.88%     21.57% # Latency in cycles for whole warp to finish the atomic
system.gpu.shader_cores0.lsq.warpLatencyAtomic::3072-4095            5      9.80%     31.37% # Latency in cycles for whole warp to finish the atomic
system.gpu.shader_cores0.lsq.warpLatencyAtomic::4096-5119            7     13.73%     45.10% # Latency in cycles for whole warp to finish the atomic
system.gpu.shader_cores0.lsq.warpLatencyAtomic::5120-6143            3      5.88%     50.98% # Latency in cycles for whole warp to finish the atomic
system.gpu.shader_cores0.lsq.warpLatencyAtomic::6144-7167            5      9.80%     60.78% # Latency in cycles for whole warp to finish the atomic
system.gpu.shader_cores0.lsq.warpLatencyAtomic::7168-8191            7     13.73%     74.51% # Latency in cycles for whole warp to finish the atomic
system.gpu.shader_cores0.lsq.warpLatencyAtomic::8192-9215            6     11.76%     86.27% # Latency in cycles for whole warp to finish the atomic
system.gpu.shader_cores0.lsq.warpLatencyAtomic::9216-10239            7     13.73%    100.00% # Latency in cycles for whole warp to finish the atomic
system.gpu.shader_cores0.lsq.warpLatencyAtomic::10240-11263            0      0.00%    100.00% # Latency in cycles for whole warp to finish the atomic
system.gpu.shader_cores0.lsq.warpLatencyAtomic::11264-12287            0      0.00%    100.00% # Latency in cycles for whole warp to finish the atomic
system.gpu.shader_cores0.lsq.warpLatencyAtomic::12288-13311            0      0.00%    100.00% # Latency in cycles for whole warp to finish the atomic
system.gpu.shader_cores0.lsq.warpLatencyAtomic::13312-14335            0      0.00%    100.00% # Latency in cycles for whole warp to finish the atomic
system.gpu.shader_cores0.lsq.warpLatencyAtomic::14336-15359            0      0.00%    100.00% # Latency in cycles for whole warp to finish the atomic
system.gpu.shader_cores0.lsq.warpLatencyAtomic::15360-16383            0      0.00%    100.00% # Latency in cycles for whole warp to finish the atomic
system.gpu.shader_cores0.lsq.warpLatencyAtomic::total           51                       # Latency in cycles for whole warp to finish the atomic
system.gpu.shader_cores0.lsq.tlbMissLatency::samples            0                       # Latency in cycles for TLB miss
system.gpu.shader_cores0.lsq.tlbMissLatency::mean          nan                       # Latency in cycles for TLB miss
system.gpu.shader_cores0.lsq.tlbMissLatency::gmean          nan                       # Latency in cycles for TLB miss
system.gpu.shader_cores0.lsq.tlbMissLatency::stdev          nan                       # Latency in cycles for TLB miss
system.gpu.shader_cores0.lsq.tlbMissLatency::0            0                       # Latency in cycles for TLB miss
system.gpu.shader_cores0.lsq.tlbMissLatency::1            0                       # Latency in cycles for TLB miss
system.gpu.shader_cores0.lsq.tlbMissLatency::2            0                       # Latency in cycles for TLB miss
system.gpu.shader_cores0.lsq.tlbMissLatency::3            0                       # Latency in cycles for TLB miss
system.gpu.shader_cores0.lsq.tlbMissLatency::4            0                       # Latency in cycles for TLB miss
system.gpu.shader_cores0.lsq.tlbMissLatency::5            0                       # Latency in cycles for TLB miss
system.gpu.shader_cores0.lsq.tlbMissLatency::6            0                       # Latency in cycles for TLB miss
system.gpu.shader_cores0.lsq.tlbMissLatency::7            0                       # Latency in cycles for TLB miss
system.gpu.shader_cores0.lsq.tlbMissLatency::8            0                       # Latency in cycles for TLB miss
system.gpu.shader_cores0.lsq.tlbMissLatency::9            0                       # Latency in cycles for TLB miss
system.gpu.shader_cores0.lsq.tlbMissLatency::10            0                       # Latency in cycles for TLB miss
system.gpu.shader_cores0.lsq.tlbMissLatency::11            0                       # Latency in cycles for TLB miss
system.gpu.shader_cores0.lsq.tlbMissLatency::12            0                       # Latency in cycles for TLB miss
system.gpu.shader_cores0.lsq.tlbMissLatency::13            0                       # Latency in cycles for TLB miss
system.gpu.shader_cores0.lsq.tlbMissLatency::14            0                       # Latency in cycles for TLB miss
system.gpu.shader_cores0.lsq.tlbMissLatency::15            0                       # Latency in cycles for TLB miss
system.gpu.shader_cores0.lsq.tlbMissLatency::total            0                       # Latency in cycles for TLB miss
system.gpu.shader_cores1.itb.hits                   0                       # Number of hits in this TLB
system.gpu.shader_cores1.itb.misses                 0                       # Number of misses in this TLB
system.gpu.shader_cores1.itb.hitRate              nan                       # Hit rate for this TLB
system.gpu.shader_cores1.local_loads                0                       # Number of loads from local space
system.gpu.shader_cores1.local_stores               0                       # Number of stores to local space
system.gpu.shader_cores1.shared_loads          283645                       # Number of loads from shared space
system.gpu.shader_cores1.shared_stores          27103                       # Number of stores to shared space
system.gpu.shader_cores1.param_kernel_loads       575860                       # Number of loads from kernel parameter space
system.gpu.shader_cores1.param_local_loads            0                       # Number of loads from local parameter space
system.gpu.shader_cores1.param_local_stores            0                       # Number of stores to local parameter space
system.gpu.shader_cores1.const_loads                0                       # Number of loads from constant space
[...]
system.ruby.Directory.miss_latency_hist.forward_to_first_response::total            1                      
system.ruby.Directory.miss_latency_hist.first_response_to_completion::bucket_size           16                      
system.ruby.Directory.miss_latency_hist.first_response_to_completion::max_bucket          159                      
system.ruby.Directory.miss_latency_hist.first_response_to_completion::samples            1                      
system.ruby.Directory.miss_latency_hist.first_response_to_completion::mean          158                      
system.ruby.Directory.miss_latency_hist.first_response_to_completion::gmean   158.000000                      
system.ruby.Directory.miss_latency_hist.first_response_to_completion::stdev          nan                      
system.ruby.Directory.miss_latency_hist.first_response_to_completion |           0      0.00%      0.00% |           0      0.00%      0.00% |           0      0.00%      0.00% |           0      0.00%      0.00% |           0      0.00%      0.00% |           0      0.00%      0.00% |           0      0.00%      0.00% |           0      0.00%      0.00% |           0      0.00%      0.00% |           1    100.00%    100.00%
system.ruby.Directory.miss_latency_hist.first_response_to_completion::total            1                      
system.ruby.LD.L1Cache.miss_type_mach_latency_hist::bucket_size          256                      
system.ruby.LD.L1Cache.miss_type_mach_latency_hist::max_bucket         2559                      
system.ruby.LD.L1Cache.miss_type_mach_latency_hist::samples       111450                      
system.ruby.LD.L1Cache.miss_type_mach_latency_hist::mean    56.738789                      
system.ruby.LD.L1Cache.miss_type_mach_latency_hist::gmean    50.068100                      
system.ruby.LD.L1Cache.miss_type_mach_latency_hist::stdev    86.284721                      
system.ruby.LD.L1Cache.miss_type_mach_latency_hist |      110452     99.10%     99.10% |         385      0.35%     99.45% |         218      0.20%     99.65% |          97      0.09%     99.73% |         112      0.10%     99.83% |          89      0.08%     99.91% |          42      0.04%     99.95% |          25      0.02%     99.97% |          30      0.03%    100.00% |           0      0.00%    100.00%
system.ruby.LD.L1Cache.miss_type_mach_latency_hist::total       111450                      
system.ruby.LD.Directory.miss_type_mach_latency_hist::bucket_size          128                      
system.ruby.LD.Directory.miss_type_mach_latency_hist::max_bucket         1279                      
system.ruby.LD.Directory.miss_type_mach_latency_hist::samples         4144                      
system.ruby.LD.Directory.miss_type_mach_latency_hist::mean   201.611245                      
system.ruby.LD.Directory.miss_type_mach_latency_hist::gmean   194.062606                      
system.ruby.LD.Directory.miss_type_mach_latency_hist::stdev    73.165017                      
system.ruby.LD.Directory.miss_type_mach_latency_hist |           0      0.00%      0.00% |        3911     94.38%     94.38% |         115      2.78%     97.15% |          41      0.99%     98.14% |          36      0.87%     99.01% |          37      0.89%     99.90% |           4      0.10%    100.00% |           0      0.00%    100.00% |           0      0.00%    100.00% |           0      0.00%    100.00%
system.ruby.LD.Directory.miss_type_mach_latency_hist::total         4144                      
system.ruby.ST.L1Cache.miss_type_mach_latency_hist::bucket_size          512                      
system.ruby.ST.L1Cache.miss_type_mach_latency_hist::max_bucket         5119                      
system.ruby.ST.L1Cache.miss_type_mach_latency_hist::samples         2065                      
system.ruby.ST.L1Cache.miss_type_mach_latency_hist::mean    66.741404                      
system.ruby.ST.L1Cache.miss_type_mach_latency_hist::gmean    60.067832                      
system.ruby.ST.L1Cache.miss_type_mach_latency_hist::stdev    79.599512                      
system.ruby.ST.L1Cache.miss_type_mach_latency_hist |        2059     99.71%     99.71% |           5      0.24%     99.95% |           0      0.00%     99.95% |           0      0.00%     99.95% |           0      0.00%     99.95% |           0      0.00%     99.95% |           1      0.05%    100.00% |           0      0.00%    100.00% |           0      0.00%    100.00% |           0      0.00%    100.00%
system.ruby.ST.L1Cache.miss_type_mach_latency_hist::total         2065                      
system.ruby.ST.Directory.miss_type_mach_latency_hist::bucket_size         1024                      
system.ruby.ST.Directory.miss_type_mach_latency_hist::max_bucket        10239                      
system.ruby.ST.Directory.miss_type_mach_latency_hist::samples         2679                      
system.ruby.ST.Directory.miss_type_mach_latency_hist::mean  1088.581560                      
system.ruby.ST.Directory.miss_type_mach_latency_hist::gmean   507.024039                      
system.ruby.ST.Directory.miss_type_mach_latency_hist::stdev  1514.403627                      
system.ruby.ST.Directory.miss_type_mach_latency_hist |        2038     76.07%     76.07% |         127      4.74%     80.81% |         128      4.78%     85.59% |         178      6.64%     92.24% |         130      4.85%     97.09% |          57      2.13%     99.22% |          19      0.71%     99.93% |           2      0.07%    100.00% |           0      0.00%    100.00% |           0      0.00%    100.00%
system.ruby.ST.Directory.miss_type_mach_latency_hist::total         2679                      
system.ruby.IFETCH.L1Cache.miss_type_mach_latency_hist::bucket_size          256                      
system.ruby.IFETCH.L1Cache.miss_type_mach_latency_hist::max_bucket         2559                      
system.ruby.IFETCH.L1Cache.miss_type_mach_latency_hist::samples          165                      
system.ruby.IFETCH.L1Cache.miss_type_mach_latency_hist::mean   176.709091                      
system.ruby.IFETCH.L1Cache.miss_type_mach_latency_hist::gmean   107.558262                      
system.ruby.IFETCH.L1Cache.miss_type_mach_latency_hist::stdev   288.153415                      
system.ruby.IFETCH.L1Cache.miss_type_mach_latency_hist |         148     89.70%     89.70% |           9      5.45%     95.15% |           0      0.00%     95.15% |           3      1.82%     96.97% |           2      1.21%     98.18% |           0      0.00%     98.18% |           2      1.21%     99.39% |           0      0.00%     99.39% |           1      0.61%    100.00% |           0      0.00%    100.00%
system.ruby.IFETCH.L1Cache.miss_type_mach_latency_hist::total          165                      
system.ruby.IFETCH.Directory.miss_type_mach_latency_hist::bucket_size          256                      
system.ruby.IFETCH.Directory.miss_type_mach_latency_hist::max_bucket         2559                      
system.ruby.IFETCH.Directory.miss_type_mach_latency_hist::samples         1514                      
system.ruby.IFETCH.Directory.miss_type_mach_latency_hist::mean   197.035667                      
system.ruby.IFETCH.Directory.miss_type_mach_latency_hist::gmean   194.186007                      
system.ruby.IFETCH.Directory.miss_type_mach_latency_hist::stdev    55.773667                      
system.ruby.IFETCH.Directory.miss_type_mach_latency_hist |        1501     99.14%     99.14% |          11      0.73%     99.87% |           1      0.07%     99.93% |           0      0.00%     99.93% |           0      0.00%     99.93% |           0      0.00%     99.93% |           0      0.00%     99.93% |           0      0.00%     99.93% |           1      0.07%    100.00% |           0      0.00%    100.00%
system.ruby.IFETCH.Directory.miss_type_mach_latency_hist::total         1514                      
system.ruby.RMW_Read.Directory.miss_type_mach_latency_hist::bucket_size           32                      
system.ruby.RMW_Read.Directory.miss_type_mach_latency_hist::max_bucket          319                      
system.ruby.RMW_Read.Directory.miss_type_mach_latency_hist::samples            3                      
system.ruby.RMW_Read.Directory.miss_type_mach_latency_hist::mean   169.666667                      
system.ruby.RMW_Read.Directory.miss_type_mach_latency_hist::gmean   167.840173                      
system.ruby.RMW_Read.Directory.miss_type_mach_latency_hist::stdev    31.469562                      
system.ruby.RMW_Read.Directory.miss_type_mach_latency_hist |           0      0.00%      0.00% |           0      0.00%      0.00% |           0      0.00%      0.00% |           0      0.00%      0.00% |           2     66.67%     66.67% |           0      0.00%     66.67% |           1     33.33%    100.00% |           0      0.00%    100.00% |           0      0.00%    100.00% |           0      0.00%    100.00%
system.ruby.RMW_Read.Directory.miss_type_mach_latency_hist::total            3                      
system.ruby.Locked_RMW_Write.L1Cache.miss_type_mach_latency_hist::bucket_size           32                      
system.ruby.Locked_RMW_Write.L1Cache.miss_type_mach_latency_hist::max_bucket          319                      
system.ruby.Locked_RMW_Write.L1Cache.miss_type_mach_latency_hist::samples         2219                      
system.ruby.Locked_RMW_Write.L1Cache.miss_type_mach_latency_hist::mean    70.561514                      
system.ruby.Locked_RMW_Write.L1Cache.miss_type_mach_latency_hist::gmean    67.604443                      
system.ruby.Locked_RMW_Write.L1Cache.miss_type_mach_latency_hist::stdev    25.834096                      
system.ruby.Locked_RMW_Write.L1Cache.miss_type_mach_latency_hist |           0      0.00%      0.00% |         540     24.34%     24.34% |        1522     68.59%     92.92% |          72      3.24%     96.17% |          44      1.98%     98.15% |          18      0.81%     98.96% |           7      0.32%     99.28% |          12      0.54%     99.82% |           4      0.18%    100.00% |           0      0.00%    100.00%
system.ruby.Locked_RMW_Write.L1Cache.miss_type_mach_latency_hist::total         2219                      
system.ruby.Directory_Controller.GETX          125717      0.00%      0.00%
system.ruby.Directory_Controller.PUTX            7370      0.00%      0.00%
system.ruby.Directory_Controller.PUTX_NotOwner            3      0.00%      0.00%
system.ruby.Directory_Controller.Memory_Data         8340      0.00%      0.00%
system.ruby.Directory_Controller.Memory_Ack         7370      0.00%      0.00%
system.ruby.Directory_Controller.I.GETX          8340      0.00%      0.00%
system.ruby.Directory_Controller.M.GETX        115899      0.00%      0.00%
system.ruby.Directory_Controller.M.PUTX          7370      0.00%      0.00%
system.ruby.Directory_Controller.M.PUTX_NotOwner            3      0.00%      0.00%
system.ruby.Directory_Controller.IM.GETX         1325      0.00%      0.00%
system.ruby.Directory_Controller.IM.Memory_Data         8340      0.00%      0.00%
system.ruby.Directory_Controller.MI.GETX          153      0.00%      0.00%
system.ruby.Directory_Controller.MI.Memory_Ack         7370      0.00%      0.00%
system.ruby.L1Cache_Controller.Load      |      306914     58.61%     58.61% |       61091     11.67%     70.28% |       48796      9.32%     79.60% |       46057      8.80%     88.39% |       60359     11.53%     99.92% |           0      0.00%     99.92% |         424      0.08%    100.00%
system.ruby.L1Cache_Controller.Load::total       523641                      
system.ruby.L1Cache_Controller.Ifetch    |     2359436     99.99%     99.99% |          50      0.00%     99.99% |          58      0.00%     99.99% |          69      0.00%    100.00% |          70      0.00%    100.00% |           0      0.00%    100.00% |           0      0.00%    100.00%
system.ruby.L1Cache_Controller.Ifetch::total      2359683                      
system.ruby.L1Cache_Controller.Store     |      170665     91.85%     91.85% |        2883      1.55%     93.41% |        2921      1.57%     94.98% |        4400      2.37%     97.35% |        4507      2.43%     99.77% |           0      0.00%     99.77% |         423      0.23%    100.00%
system.ruby.L1Cache_Controller.Store::total       185799                      
system.ruby.L1Cache_Controller.Data      |        4304      3.46%      3.46% |       30869     24.85%     28.31% |       25369     20.42%     48.73% |       30145     24.26%     72.99% |       32705     26.32%     99.32% |           0      0.00%     99.32% |         847      0.68%    100.00%
system.ruby.L1Cache_Controller.Data::total       124239                      
system.ruby.L1Cache_Controller.Fwd_GETX  |          87      0.08%      0.08% |       30257     26.11%     26.18% |       24543     21.18%     47.36% |       29079     25.09%     72.45% |       31911     27.53%     99.98% |           0      0.00%     99.98% |          22      0.02%    100.00%
system.ruby.L1Cache_Controller.Fwd_GETX::total       115899                      
system.ruby.L1Cache_Controller.Replacement |        3768     28.98%     28.98% |        1563     12.02%     41.00% |        2244     17.26%     58.25% |        2777     21.35%     79.61% |        1821     14.00%     93.61% |           0      0.00%     93.61% |         831      6.39%    100.00%
system.ruby.L1Cache_Controller.Replacement::total        13004                      
system.ruby.L1Cache_Controller.Writeback_Ack |        3721     50.49%     50.49% |         580      7.87%     58.36% |         709      9.62%     67.98% |         897     12.17%     80.15% |         653      8.86%     89.01% |           0      0.00%     89.01% |         810     10.99%    100.00%
system.ruby.L1Cache_Controller.Writeback_Ack::total         7370                      
system.ruby.L1Cache_Controller.Writeback_Nack |           0      0.00%      0.00% |           0      0.00%      0.00% |           1     33.33%     33.33% |           2     66.67%    100.00% |           0      0.00%    100.00% |           0      0.00%    100.00% |           0      0.00%    100.00%
system.ruby.L1Cache_Controller.Writeback_Nack::total            3                      
system.ruby.L1Cache_Controller.I.Load    |        2240      1.94%      1.94% |       29585     25.59%     27.53% |       24131     20.88%     48.41% |       28257     24.45%     72.85% |       30957     26.78%     99.63% |           0      0.00%     99.63% |         424      0.37%    100.00%
system.ruby.L1Cache_Controller.I.Load::total       115594                      
system.ruby.L1Cache_Controller.I.Ifetch  |        1432     85.29%     85.29% |          50      2.98%     88.27% |          58      3.45%     91.72% |          69      4.11%     95.83% |          70      4.17%    100.00% |           0      0.00%    100.00% |           0      0.00%    100.00%
system.ruby.L1Cache_Controller.I.Ifetch::total         1679                      
system.ruby.L1Cache_Controller.I.Store   |         632      9.07%      9.07% |        1234     17.71%     26.79% |        1180     16.94%     43.73% |        1819     26.11%     69.84% |        1678     24.09%     93.93% |           0      0.00%     93.93% |         423      6.07%    100.00%
system.ruby.L1Cache_Controller.I.Store::total         6966                      
system.ruby.L1Cache_Controller.I.Replacement |          47      0.83%      0.83% |         983     17.46%     18.29% |        1534     27.24%     45.53% |        1878     33.35%     78.88% |        1168     20.74%     99.63% |           0      0.00%     99.63% |          21      0.37%    100.00%
system.ruby.L1Cache_Controller.I.Replacement::total         5631                      
system.ruby.L1Cache_Controller.II.Writeback_Nack |           0      0.00%      0.00% |           0      0.00%      0.00% |           1     33.33%     33.33% |           2     66.67%    100.00% |           0      0.00%    100.00% |           0      0.00%    100.00% |           0      0.00%    100.00%
system.ruby.L1Cache_Controller.II.Writeback_Nack::total            3                      
system.ruby.L1Cache_Controller.M.Load    |      304674     74.67%     74.67% |       31506      7.72%     82.39% |       24665      6.04%     88.43% |       17800      4.36%     92.79% |       29402      7.21%    100.00% |           0      0.00%    100.00% |           0      0.00%    100.00%
system.ruby.L1Cache_Controller.M.Load::total       408047                      
system.ruby.L1Cache_Controller.M.Ifetch  |     2358004    100.00%    100.00% |           0      0.00%    100.00% |           0      0.00%    100.00% |           0      0.00%    100.00% |           0      0.00%    100.00% |           0      0.00%    100.00% |           0      0.00%    100.00%
system.ruby.L1Cache_Controller.M.Ifetch::total      2358004                      
system.ruby.L1Cache_Controller.M.Store   |      170033     95.08%     95.08% |        1649      0.92%     96.00% |        1741      0.97%     96.97% |        2581      1.44%     98.42% |        2829      1.58%    100.00% |           0      0.00%    100.00% |           0      0.00%    100.00%
system.ruby.L1Cache_Controller.M.Store::total       178833                      
system.ruby.L1Cache_Controller.M.Fwd_GETX |          87      0.08%      0.08% |       30257     26.11%     26.18% |       24542     21.18%     47.36% |       29077     25.09%     72.45% |       31911     27.53%     99.98% |           0      0.00%     99.98% |          22      0.02%    100.00%
system.ruby.L1Cache_Controller.M.Fwd_GETX::total       115896                      
system.ruby.L1Cache_Controller.M.Replacement |        3721     50.47%     50.47% |         580      7.87%     58.33% |         710      9.63%     67.96% |         899     12.19%     80.16% |         653      8.86%     89.01% |           0      0.00%     89.01% |         810     10.99%    100.00%
system.ruby.L1Cache_Controller.M.Replacement::total         7373                      
system.ruby.L1Cache_Controller.MI.Fwd_GETX |           0      0.00%      0.00% |           0      0.00%      0.00% |           1     33.33%     33.33% |           2     66.67%    100.00% |           0      0.00%    100.00% |           0      0.00%    100.00% |           0      0.00%    100.00%
system.ruby.L1Cache_Controller.MI.Fwd_GETX::total            3                      
system.ruby.L1Cache_Controller.MI.Writeback_Ack |        3721     50.49%     50.49% |         580      7.87%     58.36% |         709      9.62%     67.98% |         897     12.17%     80.15% |         653      8.86%     89.01% |           0      0.00%     89.01% |         810     10.99%    100.00%
system.ruby.L1Cache_Controller.MI.Writeback_Ack::total         7370                      
system.ruby.L1Cache_Controller.IS.Data   |        3672      3.13%      3.13% |       29635     25.27%     28.40% |       24189     20.63%     49.03% |       28326     24.15%     73.18% |       31027     26.46%     99.64% |           0      0.00%     99.64% |         424      0.36%    100.00%
system.ruby.L1Cache_Controller.IS.Data::total       117273                      
system.ruby.L1Cache_Controller.IM.Data   |         632      9.07%      9.07% |        1234     17.71%     26.79% |        1180     16.94%     43.73% |        1819     26.11%     69.84% |        1678     24.09%     93.93% |           0      0.00%     93.93% |         423      6.07%    100.00%
system.ruby.L1Cache_Controller.IM.Data::total         6966                      

---------- End Simulation Statistics   ----------
