
---------- Begin Simulation Statistics ----------
sim_seconds                                  0.007141                       # Number of seconds simulated
sim_ticks                                  7141490000                       # Number of ticks simulated
final_tick                                 7141490000                       # Number of ticks from beginning of simulation (restored from checkpoints and never reset)
sim_freq                                 1000000000000                       # Frequency of simulated ticks
host_inst_rate                                  15661                       # Simulator instruction rate (inst/s)
host_op_rate                                    25764                       # Simulator op (including micro ops) rate (op/s)
host_tick_rate                               67607098                       # Simulator tick rate (ticks/s)
host_mem_usage                                2451616                       # Number of bytes of host memory used
host_seconds                                   105.63                       # Real time elapsed on the host
sim_insts                                     1654272                       # Number of instructions simulated
sim_ops                                       2721481                       # Number of ops (including micro ops) simulated
system.voltage_domain.voltage                       1                       # Voltage in Volts
system.clk_domain.clock                          1000                       # Clock period in ticks
system.mem_ctrls.bytes_read::writebacks         40364                       # Number of bytes read from this memory
system.mem_ctrls.bytes_read::gpu.shader_cores0.data      2059264                       # Number of bytes read from this memory
system.mem_ctrls.bytes_read::gpu.shader_cores0.inst         1200                       # Number of bytes read from this memory
system.mem_ctrls.bytes_read::gpu.shader_cores1.data      1673728                       # Number of bytes read from this memory
system.mem_ctrls.bytes_read::gpu.shader_cores1.inst         1392                       # Number of bytes read from this memory
system.mem_ctrls.bytes_read::gpu.shader_cores2.data      1650880                       # Number of bytes read from this memory
system.mem_ctrls.bytes_read::gpu.shader_cores2.inst         1648                       # Number of bytes read from this memory
system.mem_ctrls.bytes_read::gpu.shader_cores3.data      2079296                       # Number of bytes read from this memory
system.mem_ctrls.bytes_read::gpu.shader_cores3.inst         1672                       # Number of bytes read from this memory
system.mem_ctrls.bytes_read::gpu.ce             53252                       # Number of bytes read from this memory
system.mem_ctrls.bytes_read::cpu.inst        18875488                       # Number of bytes read from this memory
system.mem_ctrls.bytes_read::cpu.data         2306950                       # Number of bytes read from this memory
system.mem_ctrls.bytes_read::total           28745134                       # Number of bytes read from this memory
system.mem_ctrls.bytes_inst_read::gpu.shader_cores0.inst         1200                       # Number of instructions bytes read from this memory
system.mem_ctrls.bytes_inst_read::gpu.shader_cores1.inst         1392                       # Number of instructions bytes read from this memory
system.mem_ctrls.bytes_inst_read::gpu.shader_cores2.inst         1648                       # Number of instructions bytes read from this memory
system.mem_ctrls.bytes_inst_read::gpu.shader_cores3.inst         1672                       # Number of instructions bytes read from this memory
system.mem_ctrls.bytes_inst_read::cpu.inst     18875488                       # Number of instructions bytes read from this memory
system.mem_ctrls.bytes_inst_read::total      18881400                       # Number of instructions bytes read from this memory
system.mem_ctrls.bytes_written::writebacks        40364                       # Number of bytes written to this memory
system.mem_ctrls.bytes_written::gpu.shader_cores0.data        34428                       # Number of bytes written to this memory
system.mem_ctrls.bytes_written::gpu.shader_cores1.data        33980                       # Number of bytes written to this memory
system.mem_ctrls.bytes_written::gpu.shader_cores2.data        64720                       # Number of bytes written to this memory
system.mem_ctrls.bytes_written::gpu.shader_cores3.data        36616                       # Number of bytes written to this memory
system.mem_ctrls.bytes_written::gpu.ce          53252                       # Number of bytes written to this memory
system.mem_ctrls.bytes_written::cpu.data      1151784                       # Number of bytes written to this memory
system.mem_ctrls.bytes_written::total         1415144                       # Number of bytes written to this memory
system.mem_ctrls.num_reads::writebacks          10091                       # Number of read requests responded to by this memory
system.mem_ctrls.num_reads::gpu.shader_cores0.data        61109                       # Number of read requests responded to by this memory
system.mem_ctrls.num_reads::gpu.shader_cores0.inst           50                       # Number of read requests responded to by this memory
system.mem_ctrls.num_reads::gpu.shader_cores1.data        48868                       # Number of read requests responded to by this memory
system.mem_ctrls.num_reads::gpu.shader_cores1.inst           58                       # Number of read requests responded to by this memory
system.mem_ctrls.num_reads::gpu.shader_cores2.data        46277                       # Number of read requests responded to by this memory
system.mem_ctrls.num_reads::gpu.shader_cores2.inst           69                       # Number of read requests responded to by this memory
system.mem_ctrls.num_reads::gpu.shader_cores3.data        60323                       # Number of read requests responded to by this memory
system.mem_ctrls.num_reads::gpu.shader_cores3.inst           70                       # Number of read requests responded to by this memory
system.mem_ctrls.num_reads::gpu.ce                424                       # Number of read requests responded to by this memory
system.mem_ctrls.num_reads::cpu.inst          2359436                       # Number of read requests responded to by this memory
system.mem_ctrls.num_reads::cpu.data           312278                       # Number of read requests responded to by this memory
system.mem_ctrls.num_reads::total             2899053                       # Number of read requests responded to by this memory
system.mem_ctrls.num_writes::writebacks         10091                       # Number of write requests responded to by this memory
system.mem_ctrls.num_writes::gpu.shader_cores0.data         2359                       # Number of write requests responded to by this memory
system.mem_ctrls.num_writes::gpu.shader_cores1.data         2325                       # Number of write requests responded to by this memory
system.mem_ctrls.num_writes::gpu.shader_cores2.data         2914                       # Number of write requests responded to by this memory
system.mem_ctrls.num_writes::gpu.shader_cores3.data         2728                       # Number of write requests responded to by this memory
system.mem_ctrls.num_writes::gpu.ce               423                       # Number of write requests responded to by this memory
system.mem_ctrls.num_writes::cpu.data          165301                       # Number of write requests responded to by this memory
system.mem_ctrls.num_writes::total             186141                       # Number of write requests responded to by this memory
system.mem_ctrls.bw_read::writebacks          5652042                       # Total read bandwidth from this memory (bytes/s)
system.mem_ctrls.bw_read::gpu.shader_cores0.data    288352151                       # Total read bandwidth from this memory (bytes/s)
system.mem_ctrls.bw_read::gpu.shader_cores0.inst       168032                       # Total read bandwidth from this memory (bytes/s)
system.mem_ctrls.bw_read::gpu.shader_cores1.data    234366778                       # Total read bandwidth from this memory (bytes/s)
system.mem_ctrls.bw_read::gpu.shader_cores1.inst       194917                       # Total read bandwidth from this memory (bytes/s)
system.mem_ctrls.bw_read::gpu.shader_cores2.data    231167445                       # Total read bandwidth from this memory (bytes/s)
system.mem_ctrls.bw_read::gpu.shader_cores2.inst       230764                       # Total read bandwidth from this memory (bytes/s)
system.mem_ctrls.bw_read::gpu.shader_cores3.data    291157167                       # Total read bandwidth from this memory (bytes/s)
system.mem_ctrls.bw_read::gpu.shader_cores3.inst       234125                       # Total read bandwidth from this memory (bytes/s)
system.mem_ctrls.bw_read::gpu.ce              7456707                       # Total read bandwidth from this memory (bytes/s)
system.mem_ctrls.bw_read::cpu.inst         2643074204                       # Total read bandwidth from this memory (bytes/s)
system.mem_ctrls.bw_read::cpu.data          323034829                       # Total read bandwidth from this memory (bytes/s)
system.mem_ctrls.bw_read::total            4025089162                       # Total read bandwidth from this memory (bytes/s)
system.mem_ctrls.bw_inst_read::gpu.shader_cores0.inst       168032                       # Instruction read bandwidth from this memory (bytes/s)
system.mem_ctrls.bw_inst_read::gpu.shader_cores1.inst       194917                       # Instruction read bandwidth from this memory (bytes/s)
system.mem_ctrls.bw_inst_read::gpu.shader_cores2.inst       230764                       # Instruction read bandwidth from this memory (bytes/s)
system.mem_ctrls.bw_inst_read::gpu.shader_cores3.inst       234125                       # Instruction read bandwidth from this memory (bytes/s)
system.mem_ctrls.bw_inst_read::cpu.inst    2643074204                       # Instruction read bandwidth from this memory (bytes/s)
system.mem_ctrls.bw_inst_read::total       2643902043                       # Instruction read bandwidth from this memory (bytes/s)
system.mem_ctrls.bw_write::writebacks         5652042                       # Write bandwidth from this memory (bytes/s)
system.mem_ctrls.bw_write::gpu.shader_cores0.data      4820843                       # Write bandwidth from this memory (bytes/s)
system.mem_ctrls.bw_write::gpu.shader_cores1.data      4758111                       # Write bandwidth from this memory (bytes/s)
system.mem_ctrls.bw_write::gpu.shader_cores2.data      9062535                       # Write bandwidth from this memory (bytes/s)
system.mem_ctrls.bw_write::gpu.shader_cores3.data      5127221                       # Write bandwidth from this memory (bytes/s)
system.mem_ctrls.bw_write::gpu.ce             7456707                       # Write bandwidth from this memory (bytes/s)
system.mem_ctrls.bw_write::cpu.data         161280629                       # Write bandwidth from this memory (bytes/s)
system.mem_ctrls.bw_write::total            198158087                       # Write bandwidth from this memory (bytes/s)
system.mem_ctrls.bw_total::writebacks        11304084                       # Total bandwidth to/from this memory (bytes/s)
system.mem_ctrls.bw_total::gpu.shader_cores0.data    293172993                       # Total bandwidth to/from this memory (bytes/s)
system.mem_ctrls.bw_total::gpu.shader_cores0.inst       168032                       # Total bandwidth to/from this memory (bytes/s)
system.mem_ctrls.bw_total::gpu.shader_cores1.data    239124889                       # Total bandwidth to/from this memory (bytes/s)
system.mem_ctrls.bw_total::gpu.shader_cores1.inst       194917                       # Total bandwidth to/from this memory (bytes/s)
system.mem_ctrls.bw_total::gpu.shader_cores2.data    240229980                       # Total bandwidth to/from this memory (bytes/s)
system.mem_ctrls.bw_total::gpu.shader_cores2.inst       230764                       # Total bandwidth to/from this memory (bytes/s)
system.mem_ctrls.bw_total::gpu.shader_cores3.data    296284389                       # Total bandwidth to/from this memory (bytes/s)
system.mem_ctrls.bw_total::gpu.shader_cores3.inst       234125                       # Total bandwidth to/from this memory (bytes/s)
system.mem_ctrls.bw_total::gpu.ce            14913414                       # Total bandwidth to/from this memory (bytes/s)
system.mem_ctrls.bw_total::cpu.inst        2643074204                       # Total bandwidth to/from this memory (bytes/s)
system.mem_ctrls.bw_total::cpu.data         484315458                       # Total bandwidth to/from this memory (bytes/s)
system.mem_ctrls.bw_total::total           4223247250                       # Total bandwidth to/from this memory (bytes/s)
system.ruby_clk_domain.clock                      500                       # Clock period in ticks
system.ruby.delayHist::bucket_size                128                       # delay histogram for all message
system.ruby.delayHist::max_bucket                1279                       # delay histogram for all message
system.ruby.delayHist::samples                 247440                       # delay histogram for all message
system.ruby.delayHist::mean                  5.510487                       # delay histogram for all message
system.ruby.delayHist::stdev                36.872431                       # delay histogram for all message
system.ruby.delayHist                    |      245419     99.18%     99.18% |         925      0.37%     99.56% |         431      0.17%     99.73% |         295      0.12%     99.85% |         160      0.06%     99.92% |          94      0.04%     99.95% |          76      0.03%     99.98% |          36      0.01%    100.00% |           4      0.00%    100.00% |           0      0.00%    100.00% # delay histogram for all message
system.ruby.delayHist::total                   247440                       # delay histogram for all message
system.ruby.outstanding_req_hist::bucket_size           16                      
system.ruby.outstanding_req_hist::max_bucket          159                      
system.ruby.outstanding_req_hist::samples      3069175                      
system.ruby.outstanding_req_hist::mean       1.115146                      
system.ruby.outstanding_req_hist::gmean      1.040413                      
system.ruby.outstanding_req_hist::stdev      1.552232                      
system.ruby.outstanding_req_hist         |     3064658     99.85%     99.85% |        2520      0.08%     99.93% |         840      0.03%     99.96% |         785      0.03%     99.99% |         272      0.01%    100.00% |         100      0.00%    100.00% |           0      0.00%    100.00% |           0      0.00%    100.00% |           0      0.00%    100.00% |           0      0.00%    100.00%
system.ruby.outstanding_req_hist::total       3069175                      
system.ruby.latency_hist::bucket_size            1024                      
system.ruby.latency_hist::max_bucket            10239                      
system.ruby.latency_hist::samples             3069174                      
system.ruby.latency_hist::mean               6.236127                      
system.ruby.latency_hist::gmean              3.245340                      
system.ruby.latency_hist::stdev             58.267954                      
system.ruby.latency_hist                 |     3068349     99.97%     99.97% |         305      0.01%     99.98% |         123      0.00%     99.99% |         185      0.01%     99.99% |         123      0.00%    100.00% |          73      0.00%    100.00% |          15      0.00%    100.00% |           1      0.00%    100.00% |           0      0.00%    100.00% |           0      0.00%    100.00%
system.ruby.latency_hist::total               3069174                      
system.ruby.hit_latency_hist::bucket_size           64                      
system.ruby.hit_latency_hist::max_bucket          639                      
system.ruby.hit_latency_hist::samples         2944971                      
system.ruby.hit_latency_hist::mean           2.941507                      
system.ruby.hit_latency_hist::gmean          2.878159                      
system.ruby.hit_latency_hist::stdev          2.524667                      
system.ruby.hit_latency_hist             |     2944780     99.99%     99.99% |          51      0.00%    100.00% |          37      0.00%    100.00% |          29      0.00%    100.00% |           5      0.00%    100.00% |           8      0.00%    100.00% |          24      0.00%    100.00% |          21      0.00%    100.00% |          11      0.00%    100.00% |           5      0.00%    100.00%
system.ruby.hit_latency_hist::total           2944971                      
system.ruby.miss_latency_hist::bucket_size         1024                      
system.ruby.miss_latency_hist::max_bucket        10239                      
system.ruby.miss_latency_hist::samples         124203                      
system.ruby.miss_latency_hist::mean         84.354702                      
system.ruby.miss_latency_hist::gmean        55.934284                      
system.ruby.miss_latency_hist::stdev       278.185316                      
system.ruby.miss_latency_hist            |      123378     99.34%     99.34% |         305      0.25%     99.58% |         123      0.10%     99.68% |         185      0.15%     99.83% |         123      0.10%     99.93% |          73      0.06%     99.99% |          15      0.01%    100.00% |           1      0.00%    100.00% |           0      0.00%    100.00% |           0      0.00%    100.00%
system.ruby.miss_latency_hist::total           124203                      
system.ruby.L1Cache.incomplete_times           116071                      
system.ruby.Directory.incomplete_times           8131                      
system.ruby.l1_cntrl_ce.cacheMemory.demand_hits            0                       # Number of cache demand hits
system.ruby.l1_cntrl_ce.cacheMemory.demand_misses          847                       # Number of cache demand misses
system.ruby.l1_cntrl_ce.cacheMemory.demand_accesses          847                       # Number of cache demand accesses
system.ruby.l1_cntrl_ce.fully_busy_cycles            2                       # cycles for which number of transistions == max transitions
system.ruby.l1_cntrl0.cacheMemory.demand_hits      2832711                       # Number of cache demand hits
system.ruby.l1_cntrl0.cacheMemory.demand_misses         4304                       # Number of cache demand misses
system.ruby.l1_cntrl0.cacheMemory.demand_accesses      2837015                       # Number of cache demand accesses
system.ruby.network.routers0.percent_links_utilized     0.255577                      
system.ruby.network.routers0.msg_count.Control::2         4304                      
system.ruby.network.routers0.msg_count.Data::2         3721                      
system.ruby.network.routers0.msg_count.Response_Data::4         4391                      
system.ruby.network.routers0.msg_count.Writeback_Control::3         3808                      
system.ruby.network.routers0.msg_bytes.Control::2        34432                      
system.ruby.network.routers0.msg_bytes.Data::2       506056                      
system.ruby.network.routers0.msg_bytes.Response_Data::4       597176                      
system.ruby.network.routers0.msg_bytes.Writeback_Control::3        30464                      
system.ruby.dir_cntrl0.memBuffer.clk_domain.clock         2500                       # Clock period in ticks
system.ruby.dir_cntrl0.memBuffer.memReq         15296                       # Total number of memory requests
system.ruby.dir_cntrl0.memBuffer.memRead         8132                       # Number of memory reads
system.ruby.dir_cntrl0.memBuffer.memWrite         7164                       # Number of memory writes
system.ruby.dir_cntrl0.memBuffer.memRefresh        43495                       # Number of memory refreshes
system.ruby.dir_cntrl0.memBuffer.memWaitCycles       114777                       # Delay stalled at the head of the bank queue
system.ruby.dir_cntrl0.memBuffer.memInputQ       129737                       # Delay in the input queue
system.ruby.dir_cntrl0.memBuffer.memBankQ       208322                       # Delay behind the head of the bank queue
system.ruby.dir_cntrl0.memBuffer.totalStalls       452836                       # Total number of stall cycles
system.ruby.dir_cntrl0.memBuffer.stallsPerReq    29.604864                       # Expected number of stall cycles per request
system.ruby.dir_cntrl0.memBuffer.memBankBusy        60064                       # memory stalls due to busy bank
system.ruby.dir_cntrl0.memBuffer.memBusBusy        19714                       # memory stalls due to busy bus
system.ruby.dir_cntrl0.memBuffer.memReadWriteBusy         4507                       # memory stalls due to read write turnaround
system.ruby.dir_cntrl0.memBuffer.memDataBusBusy         2344                       # memory stalls due to read read turnaround
system.ruby.dir_cntrl0.memBuffer.memArbWait        14238                       # memory stalls due to arbitration
system.ruby.dir_cntrl0.memBuffer.memNotOld        13910                       # memory stalls due to anti starvation
system.ruby.dir_cntrl0.memBuffer.memBankCount |         552      3.61%      3.61% |         486      3.18%      6.79% |         593      3.88%     10.66% |         598      3.91%     14.57% |         415      2.71%     17.29% |         308      2.01%     19.30% |         332      2.17%     21.47% |         673      4.40%     25.87% |         496      3.24%     29.11% |         316      2.07%     31.18% |         381      2.49%     33.67% |         384      2.51%     36.18% |         451      2.95%     39.13% |         359      2.35%     41.47% |         417      2.73%     44.20% |         738      4.82%     49.03% |        1823     11.92%     60.94% |         239      1.56%     62.51% |         228      1.49%     64.00% |         290      1.90%     65.89% |         273      1.78%     67.68% |         577      3.77%     71.45% |         657      4.30%     75.75% |         273      1.78%     77.53% |         223      1.46%     78.99% |         253      1.65%     80.64% |         366      2.39%     83.03% |         440      2.88%     85.91% |         438      2.86%     88.77% |         632      4.13%     92.91% |         680      4.45%     97.35% |         405      2.65%    100.00% # Number of accesses per bank
system.ruby.dir_cntrl0.memBuffer.memBankCount::total        15296                       # Number of accesses per bank
system.ruby.dir_cntrl0.fully_busy_cycles            8                       # cycles for which number of transistions == max transitions
system.ruby.network.routers1.percent_links_utilized     0.888306                      
system.ruby.network.routers1.msg_count.Control::2       124203                      
system.ruby.network.routers1.msg_count.Data::2         7166                      
system.ruby.network.routers1.msg_count.Response_Data::4         8132                      
system.ruby.network.routers1.msg_count.Writeback_Control::3       123237                      
system.ruby.network.routers1.msg_bytes.Control::2       993624                      
system.ruby.network.routers1.msg_bytes.Data::2       974576                      
system.ruby.network.routers1.msg_bytes.Response_Data::4      1105952                      
system.ruby.network.routers1.msg_bytes.Writeback_Control::3       985896                      
system.ruby.l1_cntrl_sp00.cacheMemory.demand_hits        33324                       # Number of cache demand hits
system.ruby.l1_cntrl_sp00.cacheMemory.demand_misses        30725                       # Number of cache demand misses
system.ruby.l1_cntrl_sp00.cacheMemory.demand_accesses        64049                       # Number of cache demand accesses
system.ruby.l1_cntrl_sp00.fully_busy_cycles            4                       # cycles for which number of transistions == max transitions
system.ruby.network.routers2.percent_links_utilized     1.935321                      
system.ruby.network.routers2.msg_count.Control::2        30725                      
system.ruby.network.routers2.msg_count.Data::2          555                      
system.ruby.network.routers2.msg_count.Response_Data::4        60872                      
system.ruby.network.routers2.msg_count.Writeback_Control::3        30702                      
system.ruby.network.routers2.msg_bytes.Control::2       245800                      
system.ruby.network.routers2.msg_bytes.Data::2        75480                      
system.ruby.network.routers2.msg_bytes.Response_Data::4      8278592                      
system.ruby.network.routers2.msg_bytes.Writeback_Control::3       245616                      
system.ruby.l1_cntrl_sp01.cacheMemory.demand_hits        26475                       # Number of cache demand hits
system.ruby.l1_cntrl_sp01.cacheMemory.demand_misses        25307                       # Number of cache demand misses
system.ruby.l1_cntrl_sp01.cacheMemory.demand_accesses        51782                       # Number of cache demand accesses
system.ruby.l1_cntrl_sp01.fully_busy_cycles            5                       # cycles for which number of transistions == max transitions
system.ruby.network.routers3.percent_links_utilized     1.591244                      
system.ruby.network.routers3.msg_count.Control::2        25307                      
system.ruby.network.routers3.msg_count.Data::2          684                      
system.ruby.network.routers3.msg_count.Response_Data::4        49822                      
system.ruby.network.routers3.msg_count.Writeback_Control::3        25199                      
system.ruby.network.routers3.msg_bytes.Control::2       202456                      
system.ruby.network.routers3.msg_bytes.Data::2        93024                      
system.ruby.network.routers3.msg_bytes.Response_Data::4      6775792                      
system.ruby.network.routers3.msg_bytes.Writeback_Control::3       201592                      
system.ruby.l1_cntrl_sp02.cacheMemory.demand_hits        21126                       # Number of cache demand hits
system.ruby.l1_cntrl_sp02.cacheMemory.demand_misses        29621                       # Number of cache demand misses
system.ruby.l1_cntrl_sp02.cacheMemory.demand_accesses        50747                       # Number of cache demand accesses
system.ruby.l1_cntrl_sp02.fully_busy_cycles            6                       # cycles for which number of transistions == max transitions
system.ruby.network.routers4.percent_links_utilized     1.861061                      
system.ruby.network.routers4.msg_count.Control::2        29621                      
system.ruby.network.routers4.msg_count.Data::2          753                      
system.ruby.network.routers4.msg_count.Response_Data::4        58317                      
system.ruby.network.routers4.msg_count.Writeback_Control::3        29449                      
system.ruby.network.routers4.msg_bytes.Control::2       236968                      
system.ruby.network.routers4.msg_bytes.Data::2       102408                      
system.ruby.network.routers4.msg_bytes.Response_Data::4      7931112                      
system.ruby.network.routers4.msg_bytes.Writeback_Control::3       235592                      
system.ruby.l1_cntrl_sp03.cacheMemory.demand_hits        31335                       # Number of cache demand hits
system.ruby.l1_cntrl_sp03.cacheMemory.demand_misses        33399                       # Number of cache demand misses
system.ruby.l1_cntrl_sp03.cacheMemory.demand_accesses        64734                       # Number of cache demand accesses
system.ruby.l1_cntrl_sp03.fully_busy_cycles            4                       # cycles for which number of transistions == max transitions
system.ruby.network.routers5.percent_links_utilized     2.099751                      
system.ruby.network.routers5.msg_count.Control::2        33399                      
system.ruby.network.routers5.msg_count.Data::2          643                      
system.ruby.network.routers5.msg_count.Response_Data::4        66003                      
system.ruby.network.routers5.msg_count.Writeback_Control::3        33247                      
system.ruby.network.routers5.msg_bytes.Control::2       267192                      
system.ruby.network.routers5.msg_bytes.Data::2        87448                      
system.ruby.network.routers5.msg_bytes.Response_Data::4      8976408                      
system.ruby.network.routers5.msg_bytes.Writeback_Control::3       265976                      
system.ruby.l1_pw_cntrl.cacheMemory.demand_hits            0                       # Number of cache demand hits
system.ruby.l1_pw_cntrl.cacheMemory.demand_misses            0                       # Number of cache demand misses
system.ruby.l1_pw_cntrl.cacheMemory.demand_accesses            0                       # Number of cache demand accesses
system.ruby.network.routers6.percent_links_utilized            0                      
system.ruby.network.routers7.percent_links_utilized     0.052899                      
system.ruby.network.routers7.msg_count.Control::2          847                      
system.ruby.network.routers7.msg_count.Data::2          810                      
system.ruby.network.routers7.msg_count.Response_Data::4          869                      
system.ruby.network.routers7.msg_count.Writeback_Control::3          832                      
system.ruby.network.routers7.msg_bytes.Control::2         6776                      
system.ruby.network.routers7.msg_bytes.Data::2       110160                      
system.ruby.network.routers7.msg_bytes.Response_Data::4       118184                      
system.ruby.network.routers7.msg_bytes.Writeback_Control::3         6656                      
system.ruby.network.routers8.percent_links_utilized     1.085520                      
system.ruby.network.routers8.msg_count.Control::2       124203                      
system.ruby.network.routers8.msg_count.Data::2         7166                      
system.ruby.network.routers8.msg_count.Response_Data::4       124203                      
system.ruby.network.routers8.msg_count.Writeback_Control::3       123237                      
system.ruby.network.routers8.msg_bytes.Control::2       993624                      
system.ruby.network.routers8.msg_bytes.Data::2       974576                      
system.ruby.network.routers8.msg_bytes.Response_Data::4     16891608                      
system.ruby.network.routers8.msg_bytes.Writeback_Control::3       985896                      
system.ruby.network.msg_count.Control          372609                      
system.ruby.network.msg_count.Data              21498                      
system.ruby.network.msg_count.Response_Data       372609                      
system.ruby.network.msg_count.Writeback_Control       369711                      
system.ruby.network.msg_byte.Control          2980872                      
system.ruby.network.msg_byte.Data             2923728                      
system.ruby.network.msg_byte.Response_Data     50674824                      
system.ruby.network.msg_byte.Writeback_Control      2957688                      
system.ruby.memctrl_clk_domain.clock             1500                       # Clock period in ticks
system.cpu_voltage_domain.voltage                   1                       # Voltage in Volts
system.gpu.clk_domain.voltage_domain.voltage            1                       # Voltage in Volts
system.gpu.clk_domain.clock                      1429                       # Clock period in ticks
system.gpu.dram_wrapper.clk_domain.clock          541                       # Clock period in ticks
system.gpu.icnt_wrapper.clk_domain.clock         2858                       # Clock period in ticks
system.gpu.shader_mmu.numPagefaults                 0                       # Number of Pagefaults
system.gpu.shader_mmu.numPagewalks                 28                       # Number of Pagewalks
system.gpu.shader_mmu.totalRequests                28                       # Total number of requests
system.gpu.shader_mmu.retryFailures                 0                       # Times the retry walk after a pagefault failed
system.gpu.shader_mmu.l2hits                        0                       # Hits in the shared L2
system.gpu.shader_mmu.prefetchHits                  0                       # Number of prefetch hits
system.gpu.shader_mmu.numPrefetches                 0                       # Number of prefetchs
system.gpu.shader_mmu.prefetchFaults                0                       # Number of faults caused by prefetches
system.gpu.shader_mmu.pagefaultLatency::samples            0                       # Latency to complete the pagefault
system.gpu.shader_mmu.pagefaultLatency::mean          nan                       # Latency to complete the pagefault
system.gpu.shader_mmu.pagefaultLatency::gmean          nan                       # Latency to complete the pagefault
system.gpu.shader_mmu.pagefaultLatency::stdev          nan                       # Latency to complete the pagefault
system.gpu.shader_mmu.pagefaultLatency::0            0                       # Latency to complete the pagefault
system.gpu.shader_mmu.pagefaultLatency::1            0                       # Latency to complete the pagefault
system.gpu.shader_mmu.pagefaultLatency::2            0                       # Latency to complete the pagefault
system.gpu.shader_mmu.pagefaultLatency::3            0                       # Latency to complete the pagefault
system.gpu.shader_mmu.pagefaultLatency::4            0                       # Latency to complete the pagefault
system.gpu.shader_mmu.pagefaultLatency::5            0                       # Latency to complete the pagefault
system.gpu.shader_mmu.pagefaultLatency::6            0                       # Latency to complete the pagefault
system.gpu.shader_mmu.pagefaultLatency::7            0                       # Latency to complete the pagefault
system.gpu.shader_mmu.pagefaultLatency::8            0                       # Latency to complete the pagefault
system.gpu.shader_mmu.pagefaultLatency::9            0                       # Latency to complete the pagefault
system.gpu.shader_mmu.pagefaultLatency::10            0                       # Latency to complete the pagefault
system.gpu.shader_mmu.pagefaultLatency::11            0                       # Latency to complete the pagefault
system.gpu.shader_mmu.pagefaultLatency::12            0                       # Latency to complete the pagefault
system.gpu.shader_mmu.pagefaultLatency::13            0                       # Latency to complete the pagefault
system.gpu.shader_mmu.pagefaultLatency::14            0                       # Latency to complete the pagefault
system.gpu.shader_mmu.pagefaultLatency::15            0                       # Latency to complete the pagefault
system.gpu.shader_mmu.pagefaultLatency::16            0                       # Latency to complete the pagefault
system.gpu.shader_mmu.pagefaultLatency::17            0                       # Latency to complete the pagefault
system.gpu.shader_mmu.pagefaultLatency::18            0                       # Latency to complete the pagefault
system.gpu.shader_mmu.pagefaultLatency::19            0                       # Latency to complete the pagefault
system.gpu.shader_mmu.pagefaultLatency::20            0                       # Latency to complete the pagefault
system.gpu.shader_mmu.pagefaultLatency::21            0                       # Latency to complete the pagefault
system.gpu.shader_mmu.pagefaultLatency::22            0                       # Latency to complete the pagefault
system.gpu.shader_mmu.pagefaultLatency::23            0                       # Latency to complete the pagefault
system.gpu.shader_mmu.pagefaultLatency::24            0                       # Latency to complete the pagefault
system.gpu.shader_mmu.pagefaultLatency::25            0                       # Latency to complete the pagefault
system.gpu.shader_mmu.pagefaultLatency::26            0                       # Latency to complete the pagefault
system.gpu.shader_mmu.pagefaultLatency::27            0                       # Latency to complete the pagefault
system.gpu.shader_mmu.pagefaultLatency::28            0                       # Latency to complete the pagefault
system.gpu.shader_mmu.pagefaultLatency::29            0                       # Latency to complete the pagefault
system.gpu.shader_mmu.pagefaultLatency::30            0                       # Latency to complete the pagefault
system.gpu.shader_mmu.pagefaultLatency::31            0                       # Latency to complete the pagefault
system.gpu.shader_mmu.pagefaultLatency::total            0                       # Latency to complete the pagefault
system.gpu.shader_mmu.concurrentWalks::samples           28                       # Number of outstanding walks
system.gpu.shader_mmu.concurrentWalks::mean            0                       # Number of outstanding walks
system.gpu.shader_mmu.concurrentWalks::gmean            0                       # Number of outstanding walks
system.gpu.shader_mmu.concurrentWalks::stdev            0                       # Number of outstanding walks
system.gpu.shader_mmu.concurrentWalks::0           28    100.00%    100.00% # Number of outstanding walks
system.gpu.shader_mmu.concurrentWalks::1            0      0.00%    100.00% # Number of outstanding walks
system.gpu.shader_mmu.concurrentWalks::2            0      0.00%    100.00% # Number of outstanding walks
system.gpu.shader_mmu.concurrentWalks::3            0      0.00%    100.00% # Number of outstanding walks
system.gpu.shader_mmu.concurrentWalks::4            0      0.00%    100.00% # Number of outstanding walks
system.gpu.shader_mmu.concurrentWalks::5            0      0.00%    100.00% # Number of outstanding walks
system.gpu.shader_mmu.concurrentWalks::6            0      0.00%    100.00% # Number of outstanding walks
system.gpu.shader_mmu.concurrentWalks::7            0      0.00%    100.00% # Number of outstanding walks
system.gpu.shader_mmu.concurrentWalks::8            0      0.00%    100.00% # Number of outstanding walks
system.gpu.shader_mmu.concurrentWalks::9            0      0.00%    100.00% # Number of outstanding walks
system.gpu.shader_mmu.concurrentWalks::10            0      0.00%    100.00% # Number of outstanding walks
system.gpu.shader_mmu.concurrentWalks::11            0      0.00%    100.00% # Number of outstanding walks
system.gpu.shader_mmu.concurrentWalks::12            0      0.00%    100.00% # Number of outstanding walks
system.gpu.shader_mmu.concurrentWalks::13            0      0.00%    100.00% # Number of outstanding walks
system.gpu.shader_mmu.concurrentWalks::14            0      0.00%    100.00% # Number of outstanding walks
system.gpu.shader_mmu.concurrentWalks::15            0      0.00%    100.00% # Number of outstanding walks
system.gpu.shader_mmu.concurrentWalks::total           28                       # Number of outstanding walks
system.gpu.shader_mmu.pagewalkLatency::samples           28                       # Latency to complete the pagewalk
system.gpu.shader_mmu.pagewalkLatency::mean            0                       # Latency to complete the pagewalk
system.gpu.shader_mmu.pagewalkLatency::gmean            0                       # Latency to complete the pagewalk
system.gpu.shader_mmu.pagewalkLatency::stdev            0                       # Latency to complete the pagewalk
system.gpu.shader_mmu.pagewalkLatency::0           28    100.00%    100.00% # Latency to complete the pagewalk
system.gpu.shader_mmu.pagewalkLatency::1            0      0.00%    100.00% # Latency to complete the pagewalk
system.gpu.shader_mmu.pagewalkLatency::2            0      0.00%    100.00% # Latency to complete the pagewalk
system.gpu.shader_mmu.pagewalkLatency::3            0      0.00%    100.00% # Latency to complete the pagewalk
system.gpu.shader_mmu.pagewalkLatency::4            0      0.00%    100.00% # Latency to complete the pagewalk
system.gpu.shader_mmu.pagewalkLatency::5            0      0.00%    100.00% # Latency to complete the pagewalk
system.gpu.shader_mmu.pagewalkLatency::6            0      0.00%    100.00% # Latency to complete the pagewalk
system.gpu.shader_mmu.pagewalkLatency::7            0      0.00%    100.00% # Latency to complete the pagewalk
system.gpu.shader_mmu.pagewalkLatency::8            0      0.00%    100.00% # Latency to complete the pagewalk
system.gpu.shader_mmu.pagewalkLatency::9            0      0.00%    100.00% # Latency to complete the pagewalk
system.gpu.shader_mmu.pagewalkLatency::10            0      0.00%    100.00% # Latency to complete the pagewalk
system.gpu.shader_mmu.pagewalkLatency::11            0      0.00%    100.00% # Latency to complete the pagewalk
system.gpu.shader_mmu.pagewalkLatency::12            0      0.00%    100.00% # Latency to complete the pagewalk
system.gpu.shader_mmu.pagewalkLatency::13            0      0.00%    100.00% # Latency to complete the pagewalk
system.gpu.shader_mmu.pagewalkLatency::14            0      0.00%    100.00% # Latency to complete the pagewalk
system.gpu.shader_mmu.pagewalkLatency::15            0      0.00%    100.00% # Latency to complete the pagewalk
system.gpu.shader_mmu.pagewalkLatency::16            0      0.00%    100.00% # Latency to complete the pagewalk
system.gpu.shader_mmu.pagewalkLatency::17            0      0.00%    100.00% # Latency to complete the pagewalk
system.gpu.shader_mmu.pagewalkLatency::18            0      0.00%    100.00% # Latency to complete the pagewalk
system.gpu.shader_mmu.pagewalkLatency::19            0      0.00%    100.00% # Latency to complete the pagewalk
system.gpu.shader_mmu.pagewalkLatency::20            0      0.00%    100.00% # Latency to complete the pagewalk
system.gpu.shader_mmu.pagewalkLatency::21            0      0.00%    100.00% # Latency to complete the pagewalk
system.gpu.shader_mmu.pagewalkLatency::22            0      0.00%    100.00% # Latency to complete the pagewalk
system.gpu.shader_mmu.pagewalkLatency::23            0      0.00%    100.00% # Latency to complete the pagewalk
system.gpu.shader_mmu.pagewalkLatency::24            0      0.00%    100.00% # Latency to complete the pagewalk
system.gpu.shader_mmu.pagewalkLatency::25            0      0.00%    100.00% # Latency to complete the pagewalk
system.gpu.shader_mmu.pagewalkLatency::26            0      0.00%    100.00% # Latency to complete the pagewalk
system.gpu.shader_mmu.pagewalkLatency::27            0      0.00%    100.00% # Latency to complete the pagewalk
system.gpu.shader_mmu.pagewalkLatency::28            0      0.00%    100.00% # Latency to complete the pagewalk
system.gpu.shader_mmu.pagewalkLatency::29            0      0.00%    100.00% # Latency to complete the pagewalk
system.gpu.shader_mmu.pagewalkLatency::30            0      0.00%    100.00% # Latency to complete the pagewalk
system.gpu.shader_mmu.pagewalkLatency::31            0      0.00%    100.00% # Latency to complete the pagewalk
system.gpu.shader_mmu.pagewalkLatency::total           28                       # Latency to complete the pagewalk
system.gpu.kernels_started                          9                       # Number of kernels started
system.gpu.kernels_completed                        9                       # Number of kernels completed
system.gpu.shader_cores0.itb.hits                   0                       # Number of hits in this TLB
system.gpu.shader_cores0.itb.misses                 0                       # Number of misses in this TLB
system.gpu.shader_cores0.itb.hitRate              nan                       # Hit rate for this TLB
system.gpu.shader_cores0.local_loads                0                       # Number of loads from local space
system.gpu.shader_cores0.local_stores               0                       # Number of stores to local space
system.gpu.shader_cores0.shared_loads          363414                       # Number of loads from shared space
system.gpu.shader_cores0.shared_stores          28460                       # Number of stores to shared space
system.gpu.shader_cores0.param_kernel_loads       744594                       # Number of loads from kernel parameter space
system.gpu.shader_cores0.param_local_loads            0                       # Number of loads from local parameter space
system.gpu.shader_cores0.param_local_stores            0                       # Number of stores to local parameter space
system.gpu.shader_cores0.const_loads                0                       # Number of loads from constant space
system.gpu.shader_cores0.tex_loads                  0                       # Number of loads from texture space
system.gpu.shader_cores0.global_loads         1832885                       # Number of loads from global space
system.gpu.shader_cores0.global_stores           8607                       # Number of stores to global space
system.gpu.shader_cores0.surf_loads                 0                       # Number of loads from surface space
system.gpu.shader_cores0.generic_loads              0                       # Number of loads from generic spaces (global, shared, local)
system.gpu.shader_cores0.generic_stores             0                       # Number of stores to generic spaces (global, shared, local)
system.gpu.shader_cores0.inst_cache_requests           50                       # Number of instruction cache requests sent
system.gpu.shader_cores0.inst_cache_retries            0                       # Number of instruction cache retries
system.gpu.shader_cores0.inst_counts::0             0                       # Inst counts: 1: ALU, 2: MAD, 3: CTRL, 4: SFU, 5: MEM, 6: TEX, 7: NOP
system.gpu.shader_cores0.inst_counts::1      11403489                       # Inst counts: 1: ALU, 2: MAD, 3: CTRL, 4: SFU, 5: MEM, 6: TEX, 7: NOP
system.gpu.shader_cores0.inst_counts::2       1826535                       # Inst counts: 1: ALU, 2: MAD, 3: CTRL, 4: SFU, 5: MEM, 6: TEX, 7: NOP
system.gpu.shader_cores0.inst_counts::3       1634902                       # Inst counts: 1: ALU, 2: MAD, 3: CTRL, 4: SFU, 5: MEM, 6: TEX, 7: NOP
system.gpu.shader_cores0.inst_counts::4        247872                       # Inst counts: 1: ALU, 2: MAD, 3: CTRL, 4: SFU, 5: MEM, 6: TEX, 7: NOP
system.gpu.shader_cores0.inst_counts::5       2977960                       # Inst counts: 1: ALU, 2: MAD, 3: CTRL, 4: SFU, 5: MEM, 6: TEX, 7: NOP
system.gpu.shader_cores0.inst_counts::6             0                       # Inst counts: 1: ALU, 2: MAD, 3: CTRL, 4: SFU, 5: MEM, 6: TEX, 7: NOP
system.gpu.shader_cores0.inst_counts::7             0                       # Inst counts: 1: ALU, 2: MAD, 3: CTRL, 4: SFU, 5: MEM, 6: TEX, 7: NOP
system.gpu.shader_cores0.activeCycles          690495                       # Number of cycles this shader was executing a CTA
system.gpu.shader_cores0.notStalledCycles       462693                       # Number of cycles this shader was actually executing at least one instance
system.gpu.shader_cores0.instInstances       18090758                       # Total instructions executed by all PEs in the core
system.gpu.shader_cores0.instPerCycle       26.199694                       # Instruction instances per cycle
system.gpu.shader_cores0.kernels_completed            8                       # Number of kernels completed
system.gpu.shader_cores0.lsq.data_tlb.hits            0                       # Number of hits in this TLB
system.gpu.shader_cores0.lsq.data_tlb.misses            0                       # Number of misses in this TLB
system.gpu.shader_cores0.lsq.data_tlb.hitRate          nan                       # Hit rate for this TLB
system.gpu.shader_cores0.lsq.warpInstBufActive::samples   -692251712                       # Histogram of number of active warp inst buffers at a given time
system.gpu.shader_cores0.lsq.warpInstBufActive::mean    -4.521163                       # Histogram of number of active warp inst buffers at a given time
system.gpu.shader_cores0.lsq.warpInstBufActive::gmean          nan                       # Histogram of number of active warp inst buffers at a given time
system.gpu.shader_cores0.lsq.warpInstBufActive::stdev          nan                       # Histogram of number of active warp inst buffers at a given time
system.gpu.shader_cores0.lsq.warpInstBufActive::0  -1501924541    216.96%    216.96% # Histogram of number of active warp inst buffers at a given time
system.gpu.shader_cores0.lsq.warpInstBufActive::1    250167885    -36.14%    180.82% # Histogram of number of active warp inst buffers at a given time
system.gpu.shader_cores0.lsq.warpInstBufActive::2    230014698    -33.23%    147.60% # Histogram of number of active warp inst buffers at a given time
system.gpu.shader_cores0.lsq.warpInstBufActive::3    158680447    -22.92%    124.67% # Histogram of number of active warp inst buffers at a given time
system.gpu.shader_cores0.lsq.warpInstBufActive::4     86603116    -12.51%    112.16% # Histogram of number of active warp inst buffers at a given time
system.gpu.shader_cores0.lsq.warpInstBufActive::5     38248614     -5.53%    106.64% # Histogram of number of active warp inst buffers at a given time
system.gpu.shader_cores0.lsq.warpInstBufActive::6     13739835     -1.98%    104.65% # Histogram of number of active warp inst buffers at a given time
system.gpu.shader_cores0.lsq.warpInstBufActive::7      4275568     -0.62%    104.04% # Histogram of number of active warp inst buffers at a given time
system.gpu.shader_cores0.lsq.warpInstBufActive::8      1674788     -0.24%    103.79% # Histogram of number of active warp inst buffers at a given time
system.gpu.shader_cores0.lsq.warpInstBufActive::9       365824     -0.05%    103.74% # Histogram of number of active warp inst buffers at a given time
system.gpu.shader_cores0.lsq.warpInstBufActive::10       398691     -0.06%    103.68% # Histogram of number of active warp inst buffers at a given time
system.gpu.shader_cores0.lsq.warpInstBufActive::11       294374     -0.04%    103.64% # Histogram of number of active warp inst buffers at a given time
system.gpu.shader_cores0.lsq.warpInstBufActive::12       334386     -0.05%    103.59% # Histogram of number of active warp inst buffers at a given time
system.gpu.shader_cores0.lsq.warpInstBufActive::13       432987     -0.06%    103.53% # Histogram of number of active warp inst buffers at a given time
system.gpu.shader_cores0.lsq.warpInstBufActive::14       370111     -0.05%    103.48% # Histogram of number of active warp inst buffers at a given time
system.gpu.shader_cores0.lsq.warpInstBufActive::15       330099     -0.05%    103.43% # Histogram of number of active warp inst buffers at a given time
system.gpu.shader_cores0.lsq.warpInstBufActive::16       211492     -0.03%    103.40% # Histogram of number of active warp inst buffers at a given time
system.gpu.shader_cores0.lsq.warpInstBufActive::17       205776     -0.03%    103.37% # Histogram of number of active warp inst buffers at a given time
system.gpu.shader_cores0.lsq.warpInstBufActive::18       205776     -0.03%    103.34% # Histogram of number of active warp inst buffers at a given time
system.gpu.shader_cores0.lsq.warpInstBufActive::19       307235     -0.04%    103.30% # Histogram of number of active warp inst buffers at a given time
system.gpu.shader_cores0.lsq.warpInstBufActive::20       197202     -0.03%    103.27% # Histogram of number of active warp inst buffers at a given time
system.gpu.shader_cores0.lsq.warpInstBufActive::21       214350     -0.03%    103.24% # Histogram of number of active warp inst buffers at a given time
system.gpu.shader_cores0.lsq.warpInstBufActive::22       137184     -0.02%    103.22% # Histogram of number of active warp inst buffers at a given time
system.gpu.shader_cores0.lsq.warpInstBufActive::23       154332     -0.02%    103.19% # Histogram of number of active warp inst buffers at a given time
system.gpu.shader_cores0.lsq.warpInstBufActive::24       242930     -0.04%    103.16% # Histogram of number of active warp inst buffers at a given time
system.gpu.shader_cores0.lsq.warpInstBufActive::25       172909     -0.02%    103.13% # Histogram of number of active warp inst buffers at a given time
system.gpu.shader_cores0.lsq.warpInstBufActive::26       634476     -0.09%    103.04% # Histogram of number of active warp inst buffers at a given time
system.gpu.shader_cores0.lsq.warpInstBufActive::27       115749     -0.02%    103.03% # Histogram of number of active warp inst buffers at a given time
system.gpu.shader_cores0.lsq.warpInstBufActive::28       200060     -0.03%    103.00% # Histogram of number of active warp inst buffers at a given time
system.gpu.shader_cores0.lsq.warpInstBufActive::29       322954     -0.05%    102.95% # Histogram of number of active warp inst buffers at a given time
system.gpu.shader_cores0.lsq.warpInstBufActive::30       478715     -0.07%    102.88% # Histogram of number of active warp inst buffers at a given time
system.gpu.shader_cores0.lsq.warpInstBufActive::31       288658     -0.04%    102.84% # Histogram of number of active warp inst buffers at a given time
system.gpu.shader_cores0.lsq.warpInstBufActive::32       132897     -0.02%    102.82% # Histogram of number of active warp inst buffers at a given time
system.gpu.shader_cores0.lsq.warpInstBufActive::33       105746     -0.02%    102.80% # Histogram of number of active warp inst buffers at a given time
system.gpu.shader_cores0.lsq.warpInstBufActive::34        28580     -0.00%    102.80% # Histogram of number of active warp inst buffers at a given time
system.gpu.shader_cores0.lsq.warpInstBufActive::35       162906     -0.02%    102.78% # Histogram of number of active warp inst buffers at a given time
system.gpu.shader_cores0.lsq.warpInstBufActive::36        88598     -0.01%    102.76% # Histogram of number of active warp inst buffers at a given time
system.gpu.shader_cores0.lsq.warpInstBufActive::37       212921     -0.03%    102.73% # Histogram of number of active warp inst buffers at a given time
system.gpu.shader_cores0.lsq.warpInstBufActive::38        41441     -0.01%    102.73% # Histogram of number of active warp inst buffers at a given time
system.gpu.shader_cores0.lsq.warpInstBufActive::39       477286     -0.07%    102.66% # Histogram of number of active warp inst buffers at a given time
system.gpu.shader_cores0.lsq.warpInstBufActive::40       261507     -0.04%    102.62% # Histogram of number of active warp inst buffers at a given time
system.gpu.shader_cores0.lsq.warpInstBufActive::41       354392     -0.05%    102.57% # Histogram of number of active warp inst buffers at a given time
system.gpu.shader_cores0.lsq.warpInstBufActive::42       564455     -0.08%    102.49% # Histogram of number of active warp inst buffers at a given time
system.gpu.shader_cores0.lsq.warpInstBufActive::43        40012     -0.01%    102.48% # Histogram of number of active warp inst buffers at a given time
system.gpu.shader_cores0.lsq.warpInstBufActive::44        51444     -0.01%    102.47% # Histogram of number of active warp inst buffers at a given time
system.gpu.shader_cores0.lsq.warpInstBufActive::45        65734     -0.01%    102.46% # Histogram of number of active warp inst buffers at a given time
system.gpu.shader_cores0.lsq.warpInstBufActive::46       202918     -0.03%    102.44% # Histogram of number of active warp inst buffers at a given time
system.gpu.shader_cores0.lsq.warpInstBufActive::47       458709     -0.07%    102.37% # Histogram of number of active warp inst buffers at a given time
system.gpu.shader_cores0.lsq.warpInstBufActive::48       477286     -0.07%    102.30% # Histogram of number of active warp inst buffers at a given time
system.gpu.shader_cores0.lsq.warpInstBufActive::49       515869     -0.07%    102.23% # Histogram of number of active warp inst buffers at a given time
system.gpu.shader_cores0.lsq.warpInstBufActive::50        30009     -0.00%    102.22% # Histogram of number of active warp inst buffers at a given time
system.gpu.shader_cores0.lsq.warpInstBufActive::51        20006     -0.00%    102.22% # Histogram of number of active warp inst buffers at a given time
system.gpu.shader_cores0.lsq.warpInstBufActive::52        20006     -0.00%    102.22% # Histogram of number of active warp inst buffers at a given time
system.gpu.shader_cores0.lsq.warpInstBufActive::53        17148     -0.00%    102.21% # Histogram of number of active warp inst buffers at a given time
system.gpu.shader_cores0.lsq.warpInstBufActive::54       553023     -0.08%    102.13% # Histogram of number of active warp inst buffers at a given time
system.gpu.shader_cores0.lsq.warpInstBufActive::55       422984     -0.06%    102.07% # Histogram of number of active warp inst buffers at a given time
system.gpu.shader_cores0.lsq.warpInstBufActive::56        14290     -0.00%    102.07% # Histogram of number of active warp inst buffers at a given time
system.gpu.shader_cores0.lsq.warpInstBufActive::57        18577     -0.00%    102.07% # Histogram of number of active warp inst buffers at a given time
system.gpu.shader_cores0.lsq.warpInstBufActive::58        17148     -0.00%    102.07% # Histogram of number of active warp inst buffers at a given time
system.gpu.shader_cores0.lsq.warpInstBufActive::59       178625     -0.03%    102.04% # Histogram of number of active warp inst buffers at a given time
system.gpu.shader_cores0.lsq.warpInstBufActive::60       410123     -0.06%    101.98% # Histogram of number of active warp inst buffers at a given time
system.gpu.shader_cores0.lsq.warpInstBufActive::61       484431     -0.07%    101.91% # Histogram of number of active warp inst buffers at a given time
system.gpu.shader_cores0.lsq.warpInstBufActive::62       495863     -0.07%    101.84% # Histogram of number of active warp inst buffers at a given time
system.gpu.shader_cores0.lsq.warpInstBufActive::63       448706     -0.06%    101.77% # Histogram of number of active warp inst buffers at a given time
system.gpu.shader_cores0.lsq.warpInstBufActive::64     12277968     -1.77%    100.00% # Histogram of number of active warp inst buffers at a given time
system.gpu.shader_cores0.lsq.warpInstBufActive::total   -692251712                       # Histogram of number of active warp inst buffers at a given time
system.gpu.shader_cores0.lsq.cacheAccesses     0.170091                       # Average number of concurrent outstanding cache accesses
system.gpu.shader_cores0.lsq.writebackBlockedCycles        13012                       # Number of cycles blocked for core writeback stage
system.gpu.shader_cores0.lsq.mshrHitQueued        10863                       # Number of hits on blocked lines in MSHRs
system.gpu.shader_cores0.lsq.mshrsFullCycles            0                       # Number of cycles stalled waiting for an MSHR
system.gpu.shader_cores0.lsq.mshrsFullCount            0                       # Number of times MSHRs filled
system.gpu.shader_cores0.lsq.warpCoalescedAccesses::samples        59259                       # Number of coalesced accesses per warp instruction
system.gpu.shader_cores0.lsq.warpCoalescedAccesses::mean     1.079988                       # Number of coalesced accesses per warp instruction
system.gpu.shader_cores0.lsq.warpCoalescedAccesses::gmean     1.026593                       # Number of coalesced accesses per warp instruction
system.gpu.shader_cores0.lsq.warpCoalescedAccesses::stdev     0.906240                       # Number of coalesced accesses per warp instruction
system.gpu.shader_cores0.lsq.warpCoalescedAccesses::0            0      0.00%      0.00% # Number of coalesced accesses per warp instruction
system.gpu.shader_cores0.lsq.warpCoalescedAccesses::1        58169     98.16%     98.16% # Number of coalesced accesses per warp instruction
system.gpu.shader_cores0.lsq.warpCoalescedAccesses::2          273      0.46%     98.62% # Number of coalesced accesses per warp instruction
system.gpu.shader_cores0.lsq.warpCoalescedAccesses::3          217      0.37%     98.99% # Number of coalesced accesses per warp instruction
system.gpu.shader_cores0.lsq.warpCoalescedAccesses::4          146      0.25%     99.23% # Number of coalesced accesses per warp instruction
system.gpu.shader_cores0.lsq.warpCoalescedAccesses::5          136      0.23%     99.46% # Number of coalesced accesses per warp instruction
system.gpu.shader_cores0.lsq.warpCoalescedAccesses::6           75      0.13%     99.59% # Number of coalesced accesses per warp instruction
system.gpu.shader_cores0.lsq.warpCoalescedAccesses::7           51      0.09%     99.68% # Number of coalesced accesses per warp instruction
system.gpu.shader_cores0.lsq.warpCoalescedAccesses::8           78      0.13%     99.81% # Number of coalesced accesses per warp instruction
system.gpu.shader_cores0.lsq.warpCoalescedAccesses::9           15      0.03%     99.83% # Number of coalesced accesses per warp instruction
system.gpu.shader_cores0.lsq.warpCoalescedAccesses::10            0      0.00%     99.83% # Number of coalesced accesses per warp instruction
system.gpu.shader_cores0.lsq.warpCoalescedAccesses::11           51      0.09%     99.92% # Number of coalesced accesses per warp instruction
system.gpu.shader_cores0.lsq.warpCoalescedAccesses::12            0      0.00%     99.92% # Number of coalesced accesses per warp instruction
system.gpu.shader_cores0.lsq.warpCoalescedAccesses::13            0      0.00%     99.92% # Number of coalesced accesses per warp instruction
system.gpu.shader_cores0.lsq.warpCoalescedAccesses::14            0      0.00%     99.92% # Number of coalesced accesses per warp instruction
system.gpu.shader_cores0.lsq.warpCoalescedAccesses::15            0      0.00%     99.92% # Number of coalesced accesses per warp instruction
system.gpu.shader_cores0.lsq.warpCoalescedAccesses::16            0      0.00%     99.92% # Number of coalesced accesses per warp instruction
system.gpu.shader_cores0.lsq.warpCoalescedAccesses::17            0      0.00%     99.92% # Number of coalesced accesses per warp instruction
system.gpu.shader_cores0.lsq.warpCoalescedAccesses::18            0      0.00%     99.92% # Number of coalesced accesses per warp instruction
system.gpu.shader_cores0.lsq.warpCoalescedAccesses::19            9      0.02%     99.93% # Number of coalesced accesses per warp instruction
system.gpu.shader_cores0.lsq.warpCoalescedAccesses::20            0      0.00%     99.93% # Number of coalesced accesses per warp instruction
system.gpu.shader_cores0.lsq.warpCoalescedAccesses::21            3      0.01%     99.94% # Number of coalesced accesses per warp instruction
system.gpu.shader_cores0.lsq.warpCoalescedAccesses::22            6      0.01%     99.95% # Number of coalesced accesses per warp instruction
system.gpu.shader_cores0.lsq.warpCoalescedAccesses::23            0      0.00%     99.95% # Number of coalesced accesses per warp instruction
system.gpu.shader_cores0.lsq.warpCoalescedAccesses::24            0      0.00%     99.95% # Number of coalesced accesses per warp instruction
system.gpu.shader_cores0.lsq.warpCoalescedAccesses::25            6      0.01%     99.96% # Number of coalesced accesses per warp instruction
system.gpu.shader_cores0.lsq.warpCoalescedAccesses::26            3      0.01%     99.96% # Number of coalesced accesses per warp instruction
system.gpu.shader_cores0.lsq.warpCoalescedAccesses::27            0      0.00%     99.96% # Number of coalesced accesses per warp instruction
system.gpu.shader_cores0.lsq.warpCoalescedAccesses::28            0      0.00%     99.96% # Number of coalesced accesses per warp instruction
system.gpu.shader_cores0.lsq.warpCoalescedAccesses::29            0      0.00%     99.96% # Number of coalesced accesses per warp instruction
system.gpu.shader_cores0.lsq.warpCoalescedAccesses::30            6      0.01%     99.97% # Number of coalesced accesses per warp instruction
system.gpu.shader_cores0.lsq.warpCoalescedAccesses::31           12      0.02%     99.99% # Number of coalesced accesses per warp instruction
system.gpu.shader_cores0.lsq.warpCoalescedAccesses::32            3      0.01%    100.00% # Number of coalesced accesses per warp instruction
system.gpu.shader_cores0.lsq.warpCoalescedAccesses::total        59259                       # Number of coalesced accesses per warp instruction
system.gpu.shader_cores0.lsq.warpLatencyRead::samples        58436                       # Latency in cycles for whole warp to finish the read
system.gpu.shader_cores0.lsq.warpLatencyRead::mean    28.810819                       # Latency in cycles for whole warp to finish the read
system.gpu.shader_cores0.lsq.warpLatencyRead::gmean    20.286712                       # Latency in cycles for whole warp to finish the read
system.gpu.shader_cores0.lsq.warpLatencyRead::stdev   196.062063                       # Latency in cycles for whole warp to finish the read
system.gpu.shader_cores0.lsq.warpLatencyRead::0-1023        58378     99.90%     99.90% # Latency in cycles for whole warp to finish the read
system.gpu.shader_cores0.lsq.warpLatencyRead::1024-2047           18      0.03%     99.93% # Latency in cycles for whole warp to finish the read
system.gpu.shader_cores0.lsq.warpLatencyRead::2048-3071            0      0.00%     99.93% # Latency in cycles for whole warp to finish the read
system.gpu.shader_cores0.lsq.warpLatencyRead::3072-4095            3      0.01%     99.94% # Latency in cycles for whole warp to finish the read
system.gpu.shader_cores0.lsq.warpLatencyRead::4096-5119            2      0.00%     99.94% # Latency in cycles for whole warp to finish the read
system.gpu.shader_cores0.lsq.warpLatencyRead::5120-6143            4      0.01%     99.95% # Latency in cycles for whole warp to finish the read
system.gpu.shader_cores0.lsq.warpLatencyRead::6144-7167            9      0.02%     99.96% # Latency in cycles for whole warp to finish the read
system.gpu.shader_cores0.lsq.warpLatencyRead::7168-8191            8      0.01%     99.98% # Latency in cycles for whole warp to finish the read
system.gpu.shader_cores0.lsq.warpLatencyRead::8192-9215           12      0.02%    100.00% # Latency in cycles for whole warp to finish the read
system.gpu.shader_cores0.lsq.warpLatencyRead::9216-10239            2      0.00%    100.00% # Latency in cycles for whole warp to finish the read
system.gpu.shader_cores0.lsq.warpLatencyRead::10240-11263            0      0.00%    100.00% # Latency in cycles for whole warp to finish the read
system.gpu.shader_cores0.lsq.warpLatencyRead::11264-12287            0      0.00%    100.00% # Latency in cycles for whole warp to finish the read
system.gpu.shader_cores0.lsq.warpLatencyRead::12288-13311            0      0.00%    100.00% # Latency in cycles for whole warp to finish the read
system.gpu.shader_cores0.lsq.warpLatencyRead::13312-14335            0      0.00%    100.00% # Latency in cycles for whole warp to finish the read
system.gpu.shader_cores0.lsq.warpLatencyRead::14336-15359            0      0.00%    100.00% # Latency in cycles for whole warp to finish the read
system.gpu.shader_cores0.lsq.warpLatencyRead::15360-16383            0      0.00%    100.00% # Latency in cycles for whole warp to finish the read
system.gpu.shader_cores0.lsq.warpLatencyRead::total        58436                       # Latency in cycles for whole warp to finish the read
system.gpu.shader_cores0.lsq.warpLatencyWrite::samples          772                       # Latency in cycles for whole warp to finish the write
system.gpu.shader_cores0.lsq.warpLatencyWrite::mean   274.058290                       # Latency in cycles for whole warp to finish the write
system.gpu.shader_cores0.lsq.warpLatencyWrite::gmean    53.663499                       # Latency in cycles for whole warp to finish the write
system.gpu.shader_cores0.lsq.warpLatencyWrite::stdev   503.788481                       # Latency in cycles for whole warp to finish the write
system.gpu.shader_cores0.lsq.warpLatencyWrite::0-255          587     76.04%     76.04% # Latency in cycles for whole warp to finish the write
system.gpu.shader_cores0.lsq.warpLatencyWrite::256-511           37      4.79%     80.83% # Latency in cycles for whole warp to finish the write
system.gpu.shader_cores0.lsq.warpLatencyWrite::512-767           34      4.40%     85.23% # Latency in cycles for whole warp to finish the write
system.gpu.shader_cores0.lsq.warpLatencyWrite::768-1023           24      3.11%     88.34% # Latency in cycles for whole warp to finish the write
system.gpu.shader_cores0.lsq.warpLatencyWrite::1024-1279           35      4.53%     92.88% # Latency in cycles for whole warp to finish the write
system.gpu.shader_cores0.lsq.warpLatencyWrite::1280-1535           15      1.94%     94.82% # Latency in cycles for whole warp to finish the write
system.gpu.shader_cores0.lsq.warpLatencyWrite::1536-1791           15      1.94%     96.76% # Latency in cycles for whole warp to finish the write
system.gpu.shader_cores0.lsq.warpLatencyWrite::1792-2047           23      2.98%     99.74% # Latency in cycles for whole warp to finish the write
system.gpu.shader_cores0.lsq.warpLatencyWrite::2048-2303            2      0.26%    100.00% # Latency in cycles for whole warp to finish the write
system.gpu.shader_cores0.lsq.warpLatencyWrite::2304-2559            0      0.00%    100.00% # Latency in cycles for whole warp to finish the write
system.gpu.shader_cores0.lsq.warpLatencyWrite::2560-2815            0      0.00%    100.00% # Latency in cycles for whole warp to finish the write
system.gpu.shader_cores0.lsq.warpLatencyWrite::2816-3071            0      0.00%    100.00% # Latency in cycles for whole warp to finish the write
system.gpu.shader_cores0.lsq.warpLatencyWrite::3072-3327            0      0.00%    100.00% # Latency in cycles for whole warp to finish the write
system.gpu.shader_cores0.lsq.warpLatencyWrite::3328-3583            0      0.00%    100.00% # Latency in cycles for whole warp to finish the write
system.gpu.shader_cores0.lsq.warpLatencyWrite::3584-3839            0      0.00%    100.00% # Latency in cycles for whole warp to finish the write
system.gpu.shader_cores0.lsq.warpLatencyWrite::3840-4095            0      0.00%    100.00% # Latency in cycles for whole warp to finish the write
system.gpu.shader_cores0.lsq.warpLatencyWrite::total          772                       # Latency in cycles for whole warp to finish the write
system.gpu.shader_cores0.lsq.warpLatencyFence::samples          572                       # Latency in cycles for whole warp to finish the fence
system.gpu.shader_cores0.lsq.warpLatencyFence::mean     8.472028                       # Latency in cycles for whole warp to finish the fence
system.gpu.shader_cores0.lsq.warpLatencyFence::gmean     6.457416                       # Latency in cycles for whole warp to finish the fence
system.gpu.shader_cores0.lsq.warpLatencyFence::stdev    19.130602                       # Latency in cycles for whole warp to finish the fence
system.gpu.shader_cores0.lsq.warpLatencyFence::0-15          557     97.38%     97.38% # Latency in cycles for whole warp to finish the fence
system.gpu.shader_cores0.lsq.warpLatencyFence::16-31            3      0.52%     97.90% # Latency in cycles for whole warp to finish the fence
system.gpu.shader_cores0.lsq.warpLatencyFence::32-47            1      0.17%     98.08% # Latency in cycles for whole warp to finish the fence
system.gpu.shader_cores0.lsq.warpLatencyFence::48-63            3      0.52%     98.60% # Latency in cycles for whole warp to finish the fence
system.gpu.shader_cores0.lsq.warpLatencyFence::64-79            4      0.70%     99.30% # Latency in cycles for whole warp to finish the fence
system.gpu.shader_cores0.lsq.warpLatencyFence::80-95            0      0.00%     99.30% # Latency in cycles for whole warp to finish the fence
system.gpu.shader_cores0.lsq.warpLatencyFence::96-111            0      0.00%     99.30% # Latency in cycles for whole warp to finish the fence
system.gpu.shader_cores0.lsq.warpLatencyFence::112-127            0      0.00%     99.30% # Latency in cycles for whole warp to finish the fence
system.gpu.shader_cores0.lsq.warpLatencyFence::128-143            0      0.00%     99.30% # Latency in cycles for whole warp to finish the fence
system.gpu.shader_cores0.lsq.warpLatencyFence::144-159            0      0.00%     99.30% # Latency in cycles for whole warp to finish the fence
system.gpu.shader_cores0.lsq.warpLatencyFence::160-175            0      0.00%     99.30% # Latency in cycles for whole warp to finish the fence
system.gpu.shader_cores0.lsq.warpLatencyFence::176-191            0      0.00%     99.30% # Latency in cycles for whole warp to finish the fence
system.gpu.shader_cores0.lsq.warpLatencyFence::192-207            0      0.00%     99.30% # Latency in cycles for whole warp to finish the fence
system.gpu.shader_cores0.lsq.warpLatencyFence::208-223            4      0.70%    100.00% # Latency in cycles for whole warp to finish the fence
system.gpu.shader_cores0.lsq.warpLatencyFence::224-239            0      0.00%    100.00% # Latency in cycles for whole warp to finish the fence
system.gpu.shader_cores0.lsq.warpLatencyFence::240-255            0      0.00%    100.00% # Latency in cycles for whole warp to finish the fence
system.gpu.shader_cores0.lsq.warpLatencyFence::total          572                       # Latency in cycles for whole warp to finish the fence
system.gpu.shader_cores0.lsq.warpLatencyAtomic::samples           51                       # Latency in cycles for whole warp to finish the atomic
system.gpu.shader_cores0.lsq.warpLatencyAtomic::mean  5689.862745                       # Latency in cycles for whole warp to finish the atomic
system.gpu.shader_cores0.lsq.warpLatencyAtomic::gmean  3866.757851                       # Latency in cycles for whole warp to finish the atomic
system.gpu.shader_cores0.lsq.warpLatencyAtomic::stdev  2982.733384                       # Latency in cycles for whole warp to finish the atomic
system.gpu.shader_cores0.lsq.warpLatencyAtomic::0-1023            4      7.84%      7.84% # Latency in cycles for whole warp to finish the atomic
system.gpu.shader_cores0.lsq.warpLatencyAtomic::1024-2047            3      5.88%     13.73% # Latency in cycles for whole warp to finish the atomic
system.gpu.shader_cores0.lsq.warpLatencyAtomic::2048-3071            4      7.84%     21.57% # Latency in cycles for whole warp to finish the atomic
system.gpu.shader_cores0.lsq.warpLatencyAtomic::3072-4095            5      9.80%     31.37% # Latency in cycles for whole warp to finish the atomic
system.gpu.shader_cores0.lsq.warpLatencyAtomic::4096-5119            6     11.76%     43.14% # Latency in cycles for whole warp to finish the atomic
system.gpu.shader_cores0.lsq.warpLatencyAtomic::5120-6143            6     11.76%     54.90% # Latency in cycles for whole warp to finish the atomic
system.gpu.shader_cores0.lsq.warpLatencyAtomic::6144-7167            3      5.88%     60.78% # Latency in cycles for whole warp to finish the atomic
system.gpu.shader_cores0.lsq.warpLatencyAtomic::7168-8191            5      9.80%     70.59% # Latency in cycles for whole warp to finish the atomic
system.gpu.shader_cores0.lsq.warpLatencyAtomic::8192-9215            5      9.80%     80.39% # Latency in cycles for whole warp to finish the atomic
system.gpu.shader_cores0.lsq.warpLatencyAtomic::9216-10239           10     19.61%    100.00% # Latency in cycles for whole warp to finish the atomic
system.gpu.shader_cores0.lsq.warpLatencyAtomic::10240-11263            0      0.00%    100.00% # Latency in cycles for whole warp to finish the atomic
system.gpu.shader_cores0.lsq.warpLatencyAtomic::11264-12287            0      0.00%    100.00% # Latency in cycles for whole warp to finish the atomic
system.gpu.shader_cores0.lsq.warpLatencyAtomic::12288-13311            0      0.00%    100.00% # Latency in cycles for whole warp to finish the atomic
system.gpu.shader_cores0.lsq.warpLatencyAtomic::13312-14335            0      0.00%    100.00% # Latency in cycles for whole warp to finish the atomic
system.gpu.shader_cores0.lsq.warpLatencyAtomic::14336-15359            0      0.00%    100.00% # Latency in cycles for whole warp to finish the atomic
system.gpu.shader_cores0.lsq.warpLatencyAtomic::15360-16383            0      0.00%    100.00% # Latency in cycles for whole warp to finish the atomic
system.gpu.shader_cores0.lsq.warpLatencyAtomic::total           51                       # Latency in cycles for whole warp to finish the atomic
system.gpu.shader_cores0.lsq.tlbMissLatency::samples            0                       # Latency in cycles for TLB miss
system.gpu.shader_cores0.lsq.tlbMissLatency::mean          nan                       # Latency in cycles for TLB miss
system.gpu.shader_cores0.lsq.tlbMissLatency::gmean          nan                       # Latency in cycles for TLB miss
system.gpu.shader_cores0.lsq.tlbMissLatency::stdev          nan                       # Latency in cycles for TLB miss
system.gpu.shader_cores0.lsq.tlbMissLatency::0            0                       # Latency in cycles for TLB miss
system.gpu.shader_cores0.lsq.tlbMissLatency::1            0                       # Latency in cycles for TLB miss
system.gpu.shader_cores0.lsq.tlbMissLatency::2            0                       # Latency in cycles for TLB miss
system.gpu.shader_cores0.lsq.tlbMissLatency::3            0                       # Latency in cycles for TLB miss
system.gpu.shader_cores0.lsq.tlbMissLatency::4            0                       # Latency in cycles for TLB miss
system.gpu.shader_cores0.lsq.tlbMissLatency::5            0                       # Latency in cycles for TLB miss
system.gpu.shader_cores0.lsq.tlbMissLatency::6            0                       # Latency in cycles for TLB miss
system.gpu.shader_cores0.lsq.tlbMissLatency::7            0                       # Latency in cycles for TLB miss
system.gpu.shader_cores0.lsq.tlbMissLatency::8            0                       # Latency in cycles for TLB miss
system.gpu.shader_cores0.lsq.tlbMissLatency::9            0                       # Latency in cycles for TLB miss
system.gpu.shader_cores0.lsq.tlbMissLatency::10            0                       # Latency in cycles for TLB miss
system.gpu.shader_cores0.lsq.tlbMissLatency::11            0                       # Latency in cycles for TLB miss
system.gpu.shader_cores0.lsq.tlbMissLatency::12            0                       # Latency in cycles for TLB miss
system.gpu.shader_cores0.lsq.tlbMissLatency::13            0                       # Latency in cycles for TLB miss
system.gpu.shader_cores0.lsq.tlbMissLatency::14            0                       # Latency in cycles for TLB miss
system.gpu.shader_cores0.lsq.tlbMissLatency::15            0                       # Latency in cycles for TLB miss
system.gpu.shader_cores0.lsq.tlbMissLatency::total            0                       # Latency in cycles for TLB miss
system.gpu.shader_cores1.itb.hits                   0                       # Number of hits in this TLB
system.gpu.shader_cores1.itb.misses                 0                       # Number of misses in this TLB
system.gpu.shader_cores1.itb.hitRate              nan                       # Hit rate for this TLB
[...]
system.ruby.Directory.miss_latency_hist.forward_to_first_response::total            1                      
system.ruby.Directory.miss_latency_hist.first_response_to_completion::bucket_size           16                      
system.ruby.Directory.miss_latency_hist.first_response_to_completion::max_bucket          159                      
system.ruby.Directory.miss_latency_hist.first_response_to_completion::samples            1                      
system.ruby.Directory.miss_latency_hist.first_response_to_completion::mean          157                      
system.ruby.Directory.miss_latency_hist.first_response_to_completion::gmean   157.000000                      
system.ruby.Directory.miss_latency_hist.first_response_to_completion::stdev          nan                      
system.ruby.Directory.miss_latency_hist.first_response_to_completion |           0      0.00%      0.00% |           0      0.00%      0.00% |           0      0.00%      0.00% |           0      0.00%      0.00% |           0      0.00%      0.00% |           0      0.00%      0.00% |           0      0.00%      0.00% |           0      0.00%      0.00% |           0      0.00%      0.00% |           1    100.00%    100.00%
system.ruby.Directory.miss_latency_hist.first_response_to_completion::total            1                      
system.ruby.LD.L1Cache.miss_type_mach_latency_hist::bucket_size          256                      
system.ruby.LD.L1Cache.miss_type_mach_latency_hist::max_bucket         2559                      
system.ruby.LD.L1Cache.miss_type_mach_latency_hist::samples       111848                      
system.ruby.LD.L1Cache.miss_type_mach_latency_hist::mean    55.256884                      
system.ruby.LD.L1Cache.miss_type_mach_latency_hist::gmean    49.704239                      
system.ruby.LD.L1Cache.miss_type_mach_latency_hist::stdev    71.207440                      
system.ruby.LD.L1Cache.miss_type_mach_latency_hist |      110938     99.19%     99.19% |         262      0.23%     99.42% |         266      0.24%     99.66% |         210      0.19%     99.85% |          86      0.08%     99.92% |          56      0.05%     99.97% |          30      0.03%    100.00% |           0      0.00%    100.00% |           0      0.00%    100.00% |           0      0.00%    100.00%
system.ruby.LD.L1Cache.miss_type_mach_latency_hist::total       111848                      
system.ruby.LD.Directory.miss_type_mach_latency_hist::bucket_size          128                      
system.ruby.LD.Directory.miss_type_mach_latency_hist::max_bucket         1279                      
system.ruby.LD.Directory.miss_type_mach_latency_hist::samples         3966                      
system.ruby.LD.Directory.miss_type_mach_latency_hist::mean   202.034796                      
system.ruby.LD.Directory.miss_type_mach_latency_hist::gmean   194.077914                      
system.ruby.LD.Directory.miss_type_mach_latency_hist::stdev    76.060179                      
system.ruby.LD.Directory.miss_type_mach_latency_hist |           0      0.00%      0.00% |        3745     94.43%     94.43% |         104      2.62%     97.05% |          44      1.11%     98.16% |          29      0.73%     98.89% |          36      0.91%     99.80% |           7      0.18%     99.97% |           1      0.03%    100.00% |           0      0.00%    100.00% |           0      0.00%    100.00%
system.ruby.LD.Directory.miss_type_mach_latency_hist::total         3966                      
system.ruby.ST.L1Cache.miss_type_mach_latency_hist::bucket_size          512                      
system.ruby.ST.L1Cache.miss_type_mach_latency_hist::max_bucket         5119                      
system.ruby.ST.L1Cache.miss_type_mach_latency_hist::samples         2055                      
system.ruby.ST.L1Cache.miss_type_mach_latency_hist::mean    70.129440                      
system.ruby.ST.L1Cache.miss_type_mach_latency_hist::gmean    61.969814                      
system.ruby.ST.L1Cache.miss_type_mach_latency_hist::stdev    89.589510                      
system.ruby.ST.L1Cache.miss_type_mach_latency_hist |        2050     99.76%     99.76% |           4      0.19%     99.95% |           0      0.00%     99.95% |           0      0.00%     99.95% |           0      0.00%     99.95% |           0      0.00%     99.95% |           0      0.00%     99.95% |           1      0.05%    100.00% |           0      0.00%    100.00% |           0      0.00%    100.00%
system.ruby.ST.L1Cache.miss_type_mach_latency_hist::total         2055                      
system.ruby.ST.Directory.miss_type_mach_latency_hist::bucket_size         1024                      
system.ruby.ST.Directory.miss_type_mach_latency_hist::max_bucket        10239                      
system.ruby.ST.Directory.miss_type_mach_latency_hist::samples         2649                      
system.ruby.ST.Directory.miss_type_mach_latency_hist::mean  1094.563986                      
system.ruby.ST.Directory.miss_type_mach_latency_hist::gmean   506.271663                      
system.ruby.ST.Directory.miss_type_mach_latency_hist::stdev  1519.756623                      
system.ruby.ST.Directory.miss_type_mach_latency_hist |        2001     75.54%     75.54% |         130      4.91%     80.45% |         122      4.61%     85.05% |         184      6.95%     92.00% |         123      4.64%     96.64% |          73      2.76%     99.40% |          15      0.57%     99.96% |           1      0.04%    100.00% |           0      0.00%    100.00% |           0      0.00%    100.00%
system.ruby.ST.Directory.miss_type_mach_latency_hist::total         2649                      
system.ruby.IFETCH.L1Cache.miss_type_mach_latency_hist::bucket_size          256                      
system.ruby.IFETCH.L1Cache.miss_type_mach_latency_hist::max_bucket         2559                      
system.ruby.IFETCH.L1Cache.miss_type_mach_latency_hist::samples          165                      
system.ruby.IFETCH.L1Cache.miss_type_mach_latency_hist::mean   163.539394                      
system.ruby.IFETCH.L1Cache.miss_type_mach_latency_hist::gmean   104.627985                      
system.ruby.IFETCH.L1Cache.miss_type_mach_latency_hist::stdev   226.763643                      
system.ruby.IFETCH.L1Cache.miss_type_mach_latency_hist |         150     90.91%     90.91% |           5      3.03%     93.94% |           2      1.21%     95.15% |           5      3.03%     98.18% |           1      0.61%     98.79% |           2      1.21%    100.00% |           0      0.00%    100.00% |           0      0.00%    100.00% |           0      0.00%    100.00% |           0      0.00%    100.00%
system.ruby.IFETCH.L1Cache.miss_type_mach_latency_hist::total          165                      
system.ruby.IFETCH.Directory.miss_type_mach_latency_hist::bucket_size          256                      
system.ruby.IFETCH.Directory.miss_type_mach_latency_hist::max_bucket         2559                      
system.ruby.IFETCH.Directory.miss_type_mach_latency_hist::samples         1514                      
system.ruby.IFETCH.Directory.miss_type_mach_latency_hist::mean   195.097094                      
system.ruby.IFETCH.Directory.miss_type_mach_latency_hist::gmean   192.020468                      
system.ruby.IFETCH.Directory.miss_type_mach_latency_hist::stdev    66.180464                      
system.ruby.IFETCH.Directory.miss_type_mach_latency_hist |        1502     99.21%     99.21% |          11      0.73%     99.93% |           0      0.00%     99.93% |           0      0.00%     99.93% |           0      0.00%     99.93% |           0      0.00%     99.93% |           0      0.00%     99.93% |           0      0.00%     99.93% |           0      0.00%     99.93% |           1      0.07%    100.00%
system.ruby.IFETCH.Directory.miss_type_mach_latency_hist::total         1514                      
system.ruby.RMW_Read.Directory.miss_type_mach_latency_hist::bucket_size           32                      
system.ruby.RMW_Read.Directory.miss_type_mach_latency_hist::max_bucket          319                      
system.ruby.RMW_Read.Directory.miss_type_mach_latency_hist::samples            3                      
system.ruby.RMW_Read.Directory.miss_type_mach_latency_hist::mean   169.666667                      
system.ruby.RMW_Read.Directory.miss_type_mach_latency_hist::gmean   167.840173                      
system.ruby.RMW_Read.Directory.miss_type_mach_latency_hist::stdev    31.469562                      
system.ruby.RMW_Read.Directory.miss_type_mach_latency_hist |           0      0.00%      0.00% |           0      0.00%      0.00% |           0      0.00%      0.00% |           0      0.00%      0.00% |           2     66.67%     66.67% |           0      0.00%     66.67% |           1     33.33%    100.00% |           0      0.00%    100.00% |           0      0.00%    100.00% |           0      0.00%    100.00%
system.ruby.RMW_Read.Directory.miss_type_mach_latency_hist::total            3                      
system.ruby.Locked_RMW_Write.L1Cache.miss_type_mach_latency_hist::bucket_size           32                      
system.ruby.Locked_RMW_Write.L1Cache.miss_type_mach_latency_hist::max_bucket          319                      
system.ruby.Locked_RMW_Write.L1Cache.miss_type_mach_latency_hist::samples         2003                      
system.ruby.Locked_RMW_Write.L1Cache.miss_type_mach_latency_hist::mean    64.392911                      
system.ruby.Locked_RMW_Write.L1Cache.miss_type_mach_latency_hist::gmean    63.487781                      
system.ruby.Locked_RMW_Write.L1Cache.miss_type_mach_latency_hist::stdev    10.396576                      
system.ruby.Locked_RMW_Write.L1Cache.miss_type_mach_latency_hist |           0      0.00%      0.00% |         536     26.76%     26.76% |        1456     72.69%     99.45% |          10      0.50%     99.95% |           0      0.00%     99.95% |           1      0.05%    100.00% |           0      0.00%    100.00% |           0      0.00%    100.00% |           0      0.00%    100.00% |           0      0.00%    100.00%
system.ruby.Locked_RMW_Write.L1Cache.miss_type_mach_latency_hist::total         2003                      
system.ruby.L1Cache_Controller.Load      |      306914     58.58%     58.58% |       61109     11.66%     70.24% |       48868      9.33%     79.57% |       46277      8.83%     88.41% |       60323     11.51%     99.92% |           0      0.00%     99.92% |         424      0.08%    100.00%
system.ruby.L1Cache_Controller.Load::total       523915                      
system.ruby.L1Cache_Controller.Ifetch    |     2359436     99.99%     99.99% |          50      0.00%     99.99% |          58      0.00%     99.99% |          69      0.00%    100.00% |          70      0.00%    100.00% |           0      0.00%    100.00% |           0      0.00%    100.00%
system.ruby.L1Cache_Controller.Ifetch::total      2359683                      
system.ruby.L1Cache_Controller.Store     |      170665     91.97%     91.97% |        2890      1.56%     93.52% |        2856      1.54%     95.06% |        4401      2.37%     97.43% |        4341      2.34%     99.77% |           0      0.00%     99.77% |         423      0.23%    100.00%
system.ruby.L1Cache_Controller.Store::total       185576                      
system.ruby.L1Cache_Controller.Data      |        4304      3.47%      3.47% |       30725     24.74%     28.20% |       25307     20.38%     48.58% |       29621     23.85%     72.43% |       33399     26.89%     99.32% |           0      0.00%     99.32% |         847      0.68%    100.00%
system.ruby.L1Cache_Controller.Data::total       124203                      
system.ruby.L1Cache_Controller.Fwd_GETX  |          87      0.07%      0.07% |       30147     25.97%     26.05% |       24515     21.12%     47.17% |       28696     24.72%     71.89% |       32604     28.09%     99.98% |           0      0.00%     99.98% |          22      0.02%    100.00%
system.ruby.L1Cache_Controller.Fwd_GETX::total       116071                      
system.ruby.L1Cache_Controller.Replacement |        3768     30.18%     30.18% |        1518     12.16%     42.34% |        2025     16.22%     58.55% |        2502     20.04%     78.59% |        1842     14.75%     93.34% |           0      0.00%     93.34% |         831      6.66%    100.00%
system.ruby.L1Cache_Controller.Replacement::total        12486                      
system.ruby.L1Cache_Controller.Writeback_Ack |        3721     51.94%     51.94% |         555      7.75%     59.69% |         683      9.53%     69.22% |         752     10.50%     79.72% |         643      8.98%     88.69% |           0      0.00%     88.69% |         810     11.31%    100.00%
system.ruby.L1Cache_Controller.Writeback_Ack::total         7164                      
system.ruby.L1Cache_Controller.Writeback_Nack |           0      0.00%      0.00% |           0      0.00%      0.00% |           1     50.00%     50.00% |           1     50.00%    100.00% |           0      0.00%    100.00% |           0      0.00%    100.00% |           0      0.00%    100.00%
system.ruby.L1Cache_Controller.Writeback_Nack::total            2                      
system.ruby.L1Cache_Controller.I.Load    |        2240      1.93%      1.93% |       29422     25.40%     27.34% |       24061     20.78%     48.11% |       27856     24.05%     72.17% |       31811     27.47%     99.63% |           0      0.00%     99.63% |         424      0.37%    100.00%
system.ruby.L1Cache_Controller.I.Load::total       115814                      
system.ruby.L1Cache_Controller.I.Ifetch  |        1432     85.29%     85.29% |          50      2.98%     88.27% |          58      3.45%     91.72% |          69      4.11%     95.83% |          70      4.17%    100.00% |           0      0.00%    100.00% |           0      0.00%    100.00%
system.ruby.L1Cache_Controller.I.Ifetch::total         1679                      
system.ruby.L1Cache_Controller.I.Store   |         632      9.42%      9.42% |        1253     18.67%     28.09% |        1188     17.70%     45.80% |        1696     25.28%     71.07% |        1518     22.62%     93.70% |           0      0.00%     93.70% |         423      6.30%    100.00%
system.ruby.L1Cache_Controller.I.Store::total         6710                      
system.ruby.L1Cache_Controller.I.Replacement |          47      0.88%      0.88% |         963     18.10%     18.98% |        1341     25.21%     44.19% |        1749     32.88%     77.07% |        1199     22.54%     99.61% |           0      0.00%     99.61% |          21      0.39%    100.00%
system.ruby.L1Cache_Controller.I.Replacement::total         5320                      
system.ruby.L1Cache_Controller.II.Writeback_Nack |           0      0.00%      0.00% |           0      0.00%      0.00% |           1     50.00%     50.00% |           1     50.00%    100.00% |           0      0.00%    100.00% |           0      0.00%    100.00% |           0      0.00%    100.00%
system.ruby.L1Cache_Controller.II.Writeback_Nack::total            2                      
system.ruby.L1Cache_Controller.M.Load    |      304674     74.66%     74.66% |       31687      7.76%     82.42% |       24807      6.08%     88.50% |       18421      4.51%     93.01% |       28512      6.99%    100.00% |           0      0.00%    100.00% |           0      0.00%    100.00%
system.ruby.L1Cache_Controller.M.Load::total       408101                      
system.ruby.L1Cache_Controller.M.Ifetch  |     2358004    100.00%    100.00% |           0      0.00%    100.00% |           0      0.00%    100.00% |           0      0.00%    100.00% |           0      0.00%    100.00% |           0      0.00%    100.00% |           0      0.00%    100.00%
system.ruby.L1Cache_Controller.M.Ifetch::total      2358004                      
system.ruby.L1Cache_Controller.M.Store   |      170033     95.06%     95.06% |        1637      0.92%     95.98% |        1668      0.93%     96.91% |        2705      1.51%     98.42% |        2823      1.58%    100.00% |           0      0.00%    100.00% |           0      0.00%    100.00%
system.ruby.L1Cache_Controller.M.Store::total       178866                      
system.ruby.L1Cache_Controller.M.Fwd_GETX |          87      0.07%      0.07% |       30147     25.97%     26.05% |       24514     21.12%     47.17% |       28695     24.72%     71.89% |       32604     28.09%     99.98% |           0      0.00%     99.98% |          22      0.02%    100.00%
system.ruby.L1Cache_Controller.M.Fwd_GETX::total       116069                      
system.ruby.L1Cache_Controller.M.Replacement |        3721     51.93%     51.93% |         555      7.74%     59.67% |         684      9.55%     69.22% |         753     10.51%     79.72% |         643      8.97%     88.70% |           0      0.00%     88.70% |         810     11.30%    100.00%
system.ruby.L1Cache_Controller.M.Replacement::total         7166                      
system.ruby.L1Cache_Controller.MI.Fwd_GETX |           0      0.00%      0.00% |           0      0.00%      0.00% |           1     50.00%     50.00% |           1     50.00%    100.00% |           0      0.00%    100.00% |           0      0.00%    100.00% |           0      0.00%    100.00%
system.ruby.L1Cache_Controller.MI.Fwd_GETX::total            2                      
system.ruby.L1Cache_Controller.MI.Writeback_Ack |        3721     51.94%     51.94% |         555      7.75%     59.69% |         683      9.53%     69.22% |         752     10.50%     79.72% |         643      8.98%     88.69% |           0      0.00%     88.69% |         810     11.31%    100.00%
system.ruby.L1Cache_Controller.MI.Writeback_Ack::total         7164                      
system.ruby.L1Cache_Controller.IS.Data   |        3672      3.13%      3.13% |       29472     25.08%     28.21% |       24119     20.53%     48.74% |       27925     23.77%     72.50% |       31881     27.13%     99.64% |           0      0.00%     99.64% |         424      0.36%    100.00%
system.ruby.L1Cache_Controller.IS.Data::total       117493                      
system.ruby.L1Cache_Controller.IM.Data   |         632      9.42%      9.42% |        1253     18.67%     28.09% |        1188     17.70%     45.80% |        1696     25.28%     71.07% |        1518     22.62%     93.70% |           0      0.00%     93.70% |         423      6.30%    100.00%
system.ruby.L1Cache_Controller.IM.Data::total         6710                      
system.ruby.Directory_Controller.GETX          125839      0.00%      0.00%
system.ruby.Directory_Controller.PUTX            7164      0.00%      0.00%
system.ruby.Directory_Controller.PUTX_NotOwner            2      0.00%      0.00%
system.ruby.Directory_Controller.Memory_Data         8132      0.00%      0.00%
system.ruby.Directory_Controller.Memory_Ack         7164      0.00%      0.00%
system.ruby.Directory_Controller.I.GETX          8132      0.00%      0.00%
system.ruby.Directory_Controller.M.GETX        116071      0.00%      0.00%
system.ruby.Directory_Controller.M.PUTX          7164      0.00%      0.00%
system.ruby.Directory_Controller.M.PUTX_NotOwner            2      0.00%      0.00%
system.ruby.Directory_Controller.IM.GETX         1391      0.00%      0.00%
system.ruby.Directory_Controller.IM.Memory_Data         8132      0.00%      0.00%
system.ruby.Directory_Controller.MI.GETX          245      0.00%      0.00%
system.ruby.Directory_Controller.MI.Memory_Ack         7164      0.00%      0.00%

---------- End Simulation Statistics   ----------
