
---------- Begin Simulation Statistics ----------
sim_seconds                                  0.004360                       # Number of seconds simulated
sim_ticks                                  4360337500                       # Number of ticks simulated
final_tick                                 4360337500                       # Number of ticks from beginning of simulation (restored from checkpoints and never reset)
sim_freq                                 1000000000000                       # Frequency of simulated ticks
host_inst_rate                                  16603                       # Simulator instruction rate (inst/s)
host_op_rate                                    27318                       # Simulator op (including micro ops) rate (op/s)
host_tick_rate                               43731811                       # Simulator tick rate (ticks/s)
host_mem_usage                                4560664                       # Number of bytes of host memory used
host_seconds                                    99.71                       # Real time elapsed on the host
sim_insts                                     1655426                       # Number of instructions simulated
sim_ops                                       2723802                       # Number of ops (including micro ops) simulated
system.voltage_domain.voltage                       1                       # Voltage in Volts
system.clk_domain.clock                          1000                       # Clock period in ticks
system.mem_ctrls.clk_domain.clock                2500                       # Clock period in ticks
system.mem_ctrls.bytes_read::ruby.dir_cntrl0      1082496                       # Number of bytes read from this memory
system.mem_ctrls.bytes_read::total            1082496                       # Number of bytes read from this memory
system.mem_ctrls.bytes_written::ruby.dir_cntrl0       957312                       # Number of bytes written to this memory
system.mem_ctrls.bytes_written::total          957312                       # Number of bytes written to this memory
system.mem_ctrls.num_reads::ruby.dir_cntrl0         8457                       # Number of read requests responded to by this memory
system.mem_ctrls.num_reads::total                8457                       # Number of read requests responded to by this memory
system.mem_ctrls.num_writes::ruby.dir_cntrl0         7479                       # Number of write requests responded to by this memory
system.mem_ctrls.num_writes::total               7479                       # Number of write requests responded to by this memory
system.mem_ctrls.bw_read::ruby.dir_cntrl0    248259682                       # Total read bandwidth from this memory (bytes/s)
system.mem_ctrls.bw_read::total             248259682                       # Total read bandwidth from this memory (bytes/s)
system.mem_ctrls.bw_write::ruby.dir_cntrl0    219549977                       # Write bandwidth from this memory (bytes/s)
system.mem_ctrls.bw_write::total            219549977                       # Write bandwidth from this memory (bytes/s)
system.mem_ctrls.bw_total::ruby.dir_cntrl0    467809659                       # Total bandwidth to/from this memory (bytes/s)
system.mem_ctrls.bw_total::total            467809659                       # Total bandwidth to/from this memory (bytes/s)
system.mem_ctrls.memReq                         15936                       # Total number of memory requests
system.mem_ctrls.memRead                         8457                       # Number of memory reads
system.mem_ctrls.memWrite                        7479                       # Number of memory writes
system.mem_ctrls.memRefresh                     32587                       # Number of memory refreshes
system.mem_ctrls.memWaitCycles                 121134                       # Delay stalled at the head of the bank queue
system.mem_ctrls.memInputQ                      65023                       # Delay in the input queue
system.mem_ctrls.memBankQ                      220784                       # Delay behind the head of the bank queue
system.mem_ctrls.totalStalls                   406941                       # Total number of stall cycles
system.mem_ctrls.stallsPerReq               25.535956                       # Expected number of stall cycles per request
system.mem_ctrls.memBankBusy                    62233                       # memory stalls due to busy bank
system.mem_ctrls.memBusBusy                     21060                       # memory stalls due to busy bus
system.mem_ctrls.memReadWriteBusy                4834                       # memory stalls due to read write turnaround
system.mem_ctrls.memDataBusBusy                  2079                       # memory stalls due to read read turnaround
system.mem_ctrls.memArbWait                     15510                       # memory stalls due to arbitration
system.mem_ctrls.memNotOld                      15418                       # memory stalls due to anti starvation
system.mem_ctrls.memBankCount            |         577      3.62%      3.62% |         423      2.65%      6.28% |         540      3.39%      9.66% |         704      4.42%     14.08% |         417      2.62%     16.70% |         388      2.43%     19.13% |         626      3.93%     23.06% |         684      4.29%     27.35% |         471      2.96%     30.31% |         344      2.16%     32.47% |         417      2.62%     35.08% |         390      2.45%     37.53% |         425      2.67%     40.20% |         406      2.55%     42.75% |         422      2.65%     45.39% |         732      4.59%     49.99% |        1806     11.33%     61.32% |         238      1.49%     62.81% |         230      1.44%     64.26% |         291      1.83%     66.08% |         273      1.71%     67.80% |         575      3.61%     71.40% |         666      4.18%     75.58% |         273      1.71%     77.30% |         249      1.56%     78.86% |         309      1.94%     80.80% |         436      2.74%     83.53% |         438      2.75%     86.28% |         455      2.86%     89.14% |         630      3.95%     93.09% |         653      4.10%     97.19% |         448      2.81%    100.00% # Number of accesses per bank
system.mem_ctrls.memBankCount::total            15936                       # Number of accesses per bank
system.ruby_clk_domain.clock                      500                       # Clock period in ticks
system.ruby.phys_mem.bytes_read::writebacks        44996                       # Number of bytes read from this memory
system.ruby.phys_mem.bytes_read::cpu.inst     18887872                       # Number of bytes read from this memory
system.ruby.phys_mem.bytes_read::cpu.data      2308616                       # Number of bytes read from this memory
system.ruby.phys_mem.bytes_read::gpu.ce         53252                       # Number of bytes read from this memory
system.ruby.phys_mem.bytes_read::gpu.shader_cores0.data      2038112                       # Number of bytes read from this memory
system.ruby.phys_mem.bytes_read::gpu.shader_cores0.inst         1200                       # Number of bytes read from this memory
system.ruby.phys_mem.bytes_read::gpu.shader_cores1.data      1669312                       # Number of bytes read from this memory
system.ruby.phys_mem.bytes_read::gpu.shader_cores1.inst         1392                       # Number of bytes read from this memory
system.ruby.phys_mem.bytes_read::gpu.shader_cores2.data      1614496                       # Number of bytes read from this memory
system.ruby.phys_mem.bytes_read::gpu.shader_cores2.inst         1768                       # Number of bytes read from this memory
system.ruby.phys_mem.bytes_read::gpu.shader_cores3.data      2059616                       # Number of bytes read from this memory
system.ruby.phys_mem.bytes_read::gpu.shader_cores3.inst         1552                       # Number of bytes read from this memory
system.ruby.phys_mem.bytes_read::total       28682184                       # Number of bytes read from this memory
system.ruby.phys_mem.bytes_inst_read::cpu.inst     18887872                       # Number of instructions bytes read from this memory
system.ruby.phys_mem.bytes_inst_read::gpu.shader_cores0.inst         1200                       # Number of instructions bytes read from this memory
system.ruby.phys_mem.bytes_inst_read::gpu.shader_cores1.inst         1392                       # Number of instructions bytes read from this memory
system.ruby.phys_mem.bytes_inst_read::gpu.shader_cores2.inst         1768                       # Number of instructions bytes read from this memory
system.ruby.phys_mem.bytes_inst_read::gpu.shader_cores3.inst         1552                       # Number of instructions bytes read from this memory
system.ruby.phys_mem.bytes_inst_read::total     18893784                       # Number of instructions bytes read from this memory
system.ruby.phys_mem.bytes_written::writebacks        44996                       # Number of bytes written to this memory
system.ruby.phys_mem.bytes_written::cpu.data      1152845                       # Number of bytes written to this memory
system.ruby.phys_mem.bytes_written::gpu.ce        53252                       # Number of bytes written to this memory
system.ruby.phys_mem.bytes_written::gpu.shader_cores0.data        34396                       # Number of bytes written to this memory
system.ruby.phys_mem.bytes_written::gpu.shader_cores1.data        34484                       # Number of bytes written to this memory
system.ruby.phys_mem.bytes_written::gpu.shader_cores2.data        64424                       # Number of bytes written to this memory
system.ruby.phys_mem.bytes_written::gpu.shader_cores3.data        36424                       # Number of bytes written to this memory
system.ruby.phys_mem.bytes_written::total      1420821                       # Number of bytes written to this memory
system.ruby.phys_mem.num_reads::writebacks        11249                       # Number of read requests responded to by this memory
system.ruby.phys_mem.num_reads::cpu.inst      2360984                       # Number of read requests responded to by this memory
system.ruby.phys_mem.num_reads::cpu.data       312535                       # Number of read requests responded to by this memory
system.ruby.phys_mem.num_reads::gpu.ce            424                       # Number of read requests responded to by this memory
system.ruby.phys_mem.num_reads::gpu.shader_cores0.data        60843                       # Number of read requests responded to by this memory
system.ruby.phys_mem.num_reads::gpu.shader_cores0.inst           50                       # Number of read requests responded to by this memory
system.ruby.phys_mem.num_reads::gpu.shader_cores1.data        49135                       # Number of read requests responded to by this memory
system.ruby.phys_mem.num_reads::gpu.shader_cores1.inst           58                       # Number of read requests responded to by this memory
system.ruby.phys_mem.num_reads::gpu.shader_cores2.data        46137                       # Number of read requests responded to by this memory
system.ruby.phys_mem.num_reads::gpu.shader_cores2.inst           74                       # Number of read requests responded to by this memory
system.ruby.phys_mem.num_reads::gpu.shader_cores3.data        60395                       # Number of read requests responded to by this memory
system.ruby.phys_mem.num_reads::gpu.shader_cores3.inst           65                       # Number of read requests responded to by this memory
system.ruby.phys_mem.num_reads::total         2901949                       # Number of read requests responded to by this memory
system.ruby.phys_mem.num_writes::writebacks        11249                       # Number of write requests responded to by this memory
system.ruby.phys_mem.num_writes::cpu.data       165457                       # Number of write requests responded to by this memory
system.ruby.phys_mem.num_writes::gpu.ce           423                       # Number of write requests responded to by this memory
system.ruby.phys_mem.num_writes::gpu.shader_cores0.data         2310                       # Number of write requests responded to by this memory
system.ruby.phys_mem.num_writes::gpu.shader_cores1.data         2541                       # Number of write requests responded to by this memory
system.ruby.phys_mem.num_writes::gpu.shader_cores2.data         2862                       # Number of write requests responded to by this memory
system.ruby.phys_mem.num_writes::gpu.shader_cores3.data         2758                       # Number of write requests responded to by this memory
system.ruby.phys_mem.num_writes::total         187600                       # Number of write requests responded to by this memory
system.ruby.phys_mem.bw_read::writebacks     10319385                       # Total read bandwidth from this memory (bytes/s)
system.ruby.phys_mem.bw_read::cpu.inst     4331745421                       # Total read bandwidth from this memory (bytes/s)
system.ruby.phys_mem.bw_read::cpu.data      529458098                       # Total read bandwidth from this memory (bytes/s)
system.ruby.phys_mem.bw_read::gpu.ce         12212816                       # Total read bandwidth from this memory (bytes/s)
system.ruby.phys_mem.bw_read::gpu.shader_cores0.data    467420699                       # Total read bandwidth from this memory (bytes/s)
system.ruby.phys_mem.bw_read::gpu.shader_cores0.inst       275208                       # Total read bandwidth from this memory (bytes/s)
system.ruby.phys_mem.bw_read::gpu.shader_cores1.data    382840090                       # Total read bandwidth from this memory (bytes/s)
system.ruby.phys_mem.bw_read::gpu.shader_cores1.inst       319241                       # Total read bandwidth from this memory (bytes/s)
system.ruby.phys_mem.bw_read::gpu.shader_cores2.data    370268586                       # Total read bandwidth from this memory (bytes/s)
system.ruby.phys_mem.bw_read::gpu.shader_cores2.inst       405473                       # Total read bandwidth from this memory (bytes/s)
system.ruby.phys_mem.bw_read::gpu.shader_cores3.data    472352427                       # Total read bandwidth from this memory (bytes/s)
system.ruby.phys_mem.bw_read::gpu.shader_cores3.inst       355936                       # Total read bandwidth from this memory (bytes/s)
system.ruby.phys_mem.bw_read::total        6577973379                       # Total read bandwidth from this memory (bytes/s)
system.ruby.phys_mem.bw_inst_read::cpu.inst   4331745421                       # Instruction read bandwidth from this memory (bytes/s)
system.ruby.phys_mem.bw_inst_read::gpu.shader_cores0.inst       275208                       # Instruction read bandwidth from this memory (bytes/s)
system.ruby.phys_mem.bw_inst_read::gpu.shader_cores1.inst       319241                       # Instruction read bandwidth from this memory (bytes/s)
system.ruby.phys_mem.bw_inst_read::gpu.shader_cores2.inst       405473                       # Instruction read bandwidth from this memory (bytes/s)
system.ruby.phys_mem.bw_inst_read::gpu.shader_cores3.inst       355936                       # Instruction read bandwidth from this memory (bytes/s)
system.ruby.phys_mem.bw_inst_read::total   4333101279                       # Instruction read bandwidth from this memory (bytes/s)
system.ruby.phys_mem.bw_write::writebacks     10319385                       # Write bandwidth from this memory (bytes/s)
system.ruby.phys_mem.bw_write::cpu.data     264393525                       # Write bandwidth from this memory (bytes/s)
system.ruby.phys_mem.bw_write::gpu.ce        12212816                       # Write bandwidth from this memory (bytes/s)
system.ruby.phys_mem.bw_write::gpu.shader_cores0.data      7888380                       # Write bandwidth from this memory (bytes/s)
system.ruby.phys_mem.bw_write::gpu.shader_cores1.data      7908562                       # Write bandwidth from this memory (bytes/s)
system.ruby.phys_mem.bw_write::gpu.shader_cores2.data     14775003                       # Write bandwidth from this memory (bytes/s)
system.ruby.phys_mem.bw_write::gpu.shader_cores3.data      8353482                       # Write bandwidth from this memory (bytes/s)
system.ruby.phys_mem.bw_write::total        325851153                       # Write bandwidth from this memory (bytes/s)
system.ruby.phys_mem.bw_total::writebacks     20638769                       # Total bandwidth to/from this memory (bytes/s)
system.ruby.phys_mem.bw_total::cpu.inst    4331745421                       # Total bandwidth to/from this memory (bytes/s)
system.ruby.phys_mem.bw_total::cpu.data     793851623                       # Total bandwidth to/from this memory (bytes/s)
system.ruby.phys_mem.bw_total::gpu.ce        24425632                       # Total bandwidth to/from this memory (bytes/s)
system.ruby.phys_mem.bw_total::gpu.shader_cores0.data    475309079                       # Total bandwidth to/from this memory (bytes/s)
system.ruby.phys_mem.bw_total::gpu.shader_cores0.inst       275208                       # Total bandwidth to/from this memory (bytes/s)
system.ruby.phys_mem.bw_total::gpu.shader_cores1.data    390748652                       # Total bandwidth to/from this memory (bytes/s)
system.ruby.phys_mem.bw_total::gpu.shader_cores1.inst       319241                       # Total bandwidth to/from this memory (bytes/s)
system.ruby.phys_mem.bw_total::gpu.shader_cores2.data    385043589                       # Total bandwidth to/from this memory (bytes/s)
system.ruby.phys_mem.bw_total::gpu.shader_cores2.inst       405473                       # Total bandwidth to/from this memory (bytes/s)
system.ruby.phys_mem.bw_total::gpu.shader_cores3.data    480705909                       # Total bandwidth to/from this memory (bytes/s)
system.ruby.phys_mem.bw_total::gpu.shader_cores3.inst       355936                       # Total bandwidth to/from this memory (bytes/s)
system.ruby.phys_mem.bw_total::total       6903824532                       # Total bandwidth to/from this memory (bytes/s)
system.cpu_voltage_domain.voltage                   1                       # Voltage in Volts
system.cpu_clk_domain.clock                       500                       # Clock period in ticks
system.cpu.apic_clk_domain.clock                 8000                       # Clock period in ticks
system.cpu.workload.num_syscalls                   28                       # Number of system calls
system.cpu.numCycles                          8720675                       # number of cpu cycles simulated
system.cpu.numWorkItemsStarted                      1                       # number of work items this cpu started
system.cpu.numWorkItemsCompleted                    1                       # number of work items this cpu completed
system.cpu.committedInsts                     1655426                       # Number of instructions committed
system.cpu.committedOps                       2723802                       # Number of ops (including micro ops) committed
system.cpu.num_int_alu_accesses               1974692                       # Number of integer alu accesses
system.cpu.num_fp_alu_accesses                1026154                       # Number of float alu accesses
system.cpu.num_func_calls                       31676                       # number of times a function call or return occured
system.cpu.num_conditional_control_insts       149212                       # number of instructions that are conditional controls
system.cpu.num_int_insts                      1974692                       # number of integer instructions
system.cpu.num_fp_insts                       1026154                       # number of float instructions
system.cpu.num_int_register_reads             3737327                       # number of times the integer registers were read
system.cpu.num_int_register_writes            1435241                       # number of times the integer registers were written
system.cpu.num_fp_register_reads              1958134                       # number of times the floating registers were read
system.cpu.num_fp_register_writes              903395                       # number of times the floating registers were written
system.cpu.num_cc_register_reads              1056933                       # number of times the CC registers were read
system.cpu.num_cc_register_writes              673743                       # number of times the CC registers were written
system.cpu.num_mem_refs                        477986                       # number of memory refs
system.cpu.num_load_insts                      312529                       # Number of load instructions
system.cpu.num_store_insts                     165457                       # Number of store instructions
system.cpu.num_idle_cycles               2169704.831502                       # Number of idle cycles
system.cpu.num_busy_cycles               6550970.168498                       # Number of busy cycles
system.cpu.not_idle_fraction                 0.751200                       # Percentage of non-idle cycles
system.cpu.idle_fraction                     0.248800                       # Percentage of idle cycles
system.cpu.Branches                            196567                       # Number of branches fetched
system.cpu.op_class::No_OpClass                  2269      0.08%      0.08% # Class of executed instruction
system.cpu.op_class::IntAlu                   1718568     63.09%     63.18% # Class of executed instruction
system.cpu.op_class::IntMult                    18031      0.66%     63.84% # Class of executed instruction
system.cpu.op_class::IntDiv                      1293      0.05%     63.89% # Class of executed instruction
system.cpu.op_class::FloatAdd                  505655     18.56%     82.45% # Class of executed instruction
system.cpu.op_class::FloatCmp                       0      0.00%     82.45% # Class of executed instruction
system.cpu.op_class::FloatCvt                       0      0.00%     82.45% # Class of executed instruction
system.cpu.op_class::FloatMult                      0      0.00%     82.45% # Class of executed instruction
system.cpu.op_class::FloatDiv                       0      0.00%     82.45% # Class of executed instruction
system.cpu.op_class::FloatSqrt                      0      0.00%     82.45% # Class of executed instruction
system.cpu.op_class::SimdAdd                        0      0.00%     82.45% # Class of executed instruction
system.cpu.op_class::SimdAddAcc                     0      0.00%     82.45% # Class of executed instruction
system.cpu.op_class::SimdAlu                        0      0.00%     82.45% # Class of executed instruction
system.cpu.op_class::SimdCmp                        0      0.00%     82.45% # Class of executed instruction
system.cpu.op_class::SimdCvt                        0      0.00%     82.45% # Class of executed instruction
system.cpu.op_class::SimdMisc                       0      0.00%     82.45% # Class of executed instruction
system.cpu.op_class::SimdMult                       0      0.00%     82.45% # Class of executed instruction
system.cpu.op_class::SimdMultAcc                    0      0.00%     82.45% # Class of executed instruction
system.cpu.op_class::SimdShift                      0      0.00%     82.45% # Class of executed instruction
system.cpu.op_class::SimdShiftAcc                   0      0.00%     82.45% # Class of executed instruction
system.cpu.op_class::SimdSqrt                       0      0.00%     82.45% # Class of executed instruction
system.cpu.op_class::SimdFloatAdd                   0      0.00%     82.45% # Class of executed instruction
system.cpu.op_class::SimdFloatAlu                   0      0.00%     82.45% # Class of executed instruction
system.cpu.op_class::SimdFloatCmp                   0      0.00%     82.45% # Class of executed instruction
system.cpu.op_class::SimdFloatCvt                   0      0.00%     82.45% # Class of executed instruction
system.cpu.op_class::SimdFloatDiv                   0      0.00%     82.45% # Class of executed instruction
system.cpu.op_class::SimdFloatMisc                  0      0.00%     82.45% # Class of executed instruction
system.cpu.op_class::SimdFloatMult                  0      0.00%     82.45% # Class of executed instruction
system.cpu.op_class::SimdFloatMultAcc               0      0.00%     82.45% # Class of executed instruction
system.cpu.op_class::SimdFloatSqrt                  0      0.00%     82.45% # Class of executed instruction
system.cpu.op_class::MemRead                   312529     11.47%     93.93% # Class of executed instruction
system.cpu.op_class::MemWrite                  165457      6.07%    100.00% # Class of executed instruction
system.cpu.op_class::IprAccess                      0      0.00%    100.00% # Class of executed instruction
system.cpu.op_class::InstPrefetch                   0      0.00%    100.00% # Class of executed instruction
system.cpu.op_class::total                    2723802                       # Class of executed instruction
system.gpu.clk_domain.voltage_domain.voltage            1                       # Voltage in Volts
system.gpu.clk_domain.clock                      1429                       # Clock period in ticks
system.gpu.dram_wrapper.clk_domain.clock          541                       # Clock period in ticks
system.gpu.icnt_wrapper.clk_domain.clock         2858                       # Clock period in ticks
system.ruby.delayHist::bucket_size                128                       # delay histogram for all message
system.ruby.delayHist::max_bucket                1279                       # delay histogram for all message
system.ruby.delayHist::samples                 258716                       # delay histogram for all message
system.ruby.delayHist::mean                  5.647428                       # delay histogram for all message
system.ruby.delayHist::stdev                38.077724                       # delay histogram for all message
system.ruby.delayHist                    |      256617     99.19%     99.19% |         980      0.38%     99.57% |         330      0.13%     99.70% |         333      0.13%     99.82% |         191      0.07%     99.90% |         137      0.05%     99.95% |         103      0.04%     99.99% |          11      0.00%     99.99% |           9      0.00%    100.00% |           5      0.00%    100.00% # delay histogram for all message
system.ruby.delayHist::total                   258716                       # delay histogram for all message
system.ruby.outstanding_req_hist::bucket_size           16                      
system.ruby.outstanding_req_hist::max_bucket          159                      
system.ruby.outstanding_req_hist::samples      3071584                      
system.ruby.outstanding_req_hist::mean       1.118480                      
system.ruby.outstanding_req_hist::gmean      1.042217                      
system.ruby.outstanding_req_hist::stdev      1.541287                      
system.ruby.outstanding_req_hist         |     3066939     99.85%     99.85% |        2801      0.09%     99.94% |         738      0.02%     99.96% |         680      0.02%     99.99% |         355      0.01%    100.00% |          71      0.00%    100.00% |           0      0.00%    100.00% |           0      0.00%    100.00% |           0      0.00%    100.00% |           0      0.00%    100.00%
system.ruby.outstanding_req_hist::total       3071584                      
system.ruby.latency_hist::bucket_size            1024                      
system.ruby.latency_hist::max_bucket            10239                      
system.ruby.latency_hist::samples             3071584                      
system.ruby.latency_hist::mean               4.494830                      
system.ruby.latency_hist::gmean              1.185879                      
system.ruby.latency_hist::stdev             57.424977                      
system.ruby.latency_hist                 |     3070631     99.97%     99.97% |         420      0.01%     99.98% |         170      0.01%     99.99% |         174      0.01%     99.99% |         108      0.00%    100.00% |          71      0.00%    100.00% |          10      0.00%    100.00% |           0      0.00%    100.00% |           0      0.00%    100.00% |           0      0.00%    100.00%
system.ruby.latency_hist::total               3071584                      
system.ruby.hit_latency_hist::bucket_size           64                      
system.ruby.hit_latency_hist::max_bucket          639                      
system.ruby.hit_latency_hist::samples         2941740                      
system.ruby.hit_latency_hist::mean           1.010049                      
system.ruby.hit_latency_hist::gmean          1.000349                      
system.ruby.hit_latency_hist::stdev          1.490534                      
system.ruby.hit_latency_hist             |     2941581     99.99%     99.99% |          66      0.00%    100.00% |          35      0.00%    100.00% |          36      0.00%    100.00% |           8      0.00%    100.00% |           7      0.00%    100.00% |           3      0.00%    100.00% |           1      0.00%    100.00% |           1      0.00%    100.00% |           2      0.00%    100.00%
system.ruby.hit_latency_hist::total           2941740                      
system.ruby.miss_latency_hist::bucket_size         1024                      
system.ruby.miss_latency_hist::max_bucket        10239                      
system.ruby.miss_latency_hist::samples         129844                      
system.ruby.miss_latency_hist::mean         83.445866                      
system.ruby.miss_latency_hist::gmean        55.983463                      
system.ruby.miss_latency_hist::stdev       267.301965                      
system.ruby.miss_latency_hist            |      128891     99.27%     99.27% |         420      0.32%     99.59% |         170      0.13%     99.72% |         174      0.13%     99.85% |         108      0.08%     99.94% |          71      0.05%     99.99% |          10      0.01%    100.00% |           0      0.00%    100.00% |           0      0.00%    100.00% |           0      0.00%    100.00%
system.ruby.miss_latency_hist::total           129844                      
system.ruby.L1Cache.incomplete_times           121387                      
system.ruby.Directory.incomplete_times           8456                      
system.gpu.shader_mmu.numPagefaults                 0                       # Number of Pagefaults
system.gpu.shader_mmu.numPagewalks                 29                       # Number of Pagewalks
system.gpu.shader_mmu.totalRequests                29                       # Total number of requests
system.gpu.shader_mmu.l2hits                        0                       # Hits in the shared L2
system.gpu.shader_mmu.prefetchHits                  0                       # Number of prefetch hits
system.gpu.shader_mmu.numPrefetches                 0                       # Number of prefetchs
system.gpu.shader_mmu.prefetchFaults                0                       # Number of faults caused by prefetches
system.gpu.shader_mmu.pagefaultLatency::samples            0                       # Latency to complete the pagefault
system.gpu.shader_mmu.pagefaultLatency::mean          nan                       # Latency to complete the pagefault
system.gpu.shader_mmu.pagefaultLatency::gmean          nan                       # Latency to complete the pagefault
system.gpu.shader_mmu.pagefaultLatency::stdev          nan                       # Latency to complete the pagefault
system.gpu.shader_mmu.pagefaultLatency::0            0                       # Latency to complete the pagefault
system.gpu.shader_mmu.pagefaultLatency::1            0                       # Latency to complete the pagefault
system.gpu.shader_mmu.pagefaultLatency::2            0                       # Latency to complete the pagefault
system.gpu.shader_mmu.pagefaultLatency::3            0                       # Latency to complete the pagefault
system.gpu.shader_mmu.pagefaultLatency::4            0                       # Latency to complete the pagefault
system.gpu.shader_mmu.pagefaultLatency::5            0                       # Latency to complete the pagefault
system.gpu.shader_mmu.pagefaultLatency::6            0                       # Latency to complete the pagefault
system.gpu.shader_mmu.pagefaultLatency::7            0                       # Latency to complete the pagefault
system.gpu.shader_mmu.pagefaultLatency::8            0                       # Latency to complete the pagefault
system.gpu.shader_mmu.pagefaultLatency::9            0                       # Latency to complete the pagefault
system.gpu.shader_mmu.pagefaultLatency::10            0                       # Latency to complete the pagefault
system.gpu.shader_mmu.pagefaultLatency::11            0                       # Latency to complete the pagefault
system.gpu.shader_mmu.pagefaultLatency::12            0                       # Latency to complete the pagefault
system.gpu.shader_mmu.pagefaultLatency::13            0                       # Latency to complete the pagefault
system.gpu.shader_mmu.pagefaultLatency::14            0                       # Latency to complete the pagefault
system.gpu.shader_mmu.pagefaultLatency::15            0                       # Latency to complete the pagefault
system.gpu.shader_mmu.pagefaultLatency::16            0                       # Latency to complete the pagefault
system.gpu.shader_mmu.pagefaultLatency::17            0                       # Latency to complete the pagefault
system.gpu.shader_mmu.pagefaultLatency::18            0                       # Latency to complete the pagefault
system.gpu.shader_mmu.pagefaultLatency::19            0                       # Latency to complete the pagefault
system.gpu.shader_mmu.pagefaultLatency::20            0                       # Latency to complete the pagefault
system.gpu.shader_mmu.pagefaultLatency::21            0                       # Latency to complete the pagefault
system.gpu.shader_mmu.pagefaultLatency::22            0                       # Latency to complete the pagefault
system.gpu.shader_mmu.pagefaultLatency::23            0                       # Latency to complete the pagefault
system.gpu.shader_mmu.pagefaultLatency::24            0                       # Latency to complete the pagefault
system.gpu.shader_mmu.pagefaultLatency::25            0                       # Latency to complete the pagefault
system.gpu.shader_mmu.pagefaultLatency::26            0                       # Latency to complete the pagefault
system.gpu.shader_mmu.pagefaultLatency::27            0                       # Latency to complete the pagefault
system.gpu.shader_mmu.pagefaultLatency::28            0                       # Latency to complete the pagefault
system.gpu.shader_mmu.pagefaultLatency::29            0                       # Latency to complete the pagefault
system.gpu.shader_mmu.pagefaultLatency::30            0                       # Latency to complete the pagefault
system.gpu.shader_mmu.pagefaultLatency::31            0                       # Latency to complete the pagefault
system.gpu.shader_mmu.pagefaultLatency::total            0                       # Latency to complete the pagefault
system.gpu.shader_mmu.concurrentWalks::samples           29                       # Number of outstanding walks
system.gpu.shader_mmu.concurrentWalks::mean            0                       # Number of outstanding walks
system.gpu.shader_mmu.concurrentWalks::gmean            0                       # Number of outstanding walks
system.gpu.shader_mmu.concurrentWalks::stdev            0                       # Number of outstanding walks
system.gpu.shader_mmu.concurrentWalks::0           29    100.00%    100.00% # Number of outstanding walks
system.gpu.shader_mmu.concurrentWalks::1            0      0.00%    100.00% # Number of outstanding walks
system.gpu.shader_mmu.concurrentWalks::2            0      0.00%    100.00% # Number of outstanding walks
system.gpu.shader_mmu.concurrentWalks::3            0      0.00%    100.00% # Number of outstanding walks
system.gpu.shader_mmu.concurrentWalks::4            0      0.00%    100.00% # Number of outstanding walks
system.gpu.shader_mmu.concurrentWalks::5            0      0.00%    100.00% # Number of outstanding walks
system.gpu.shader_mmu.concurrentWalks::6            0      0.00%    100.00% # Number of outstanding walks
system.gpu.shader_mmu.concurrentWalks::7            0      0.00%    100.00% # Number of outstanding walks
system.gpu.shader_mmu.concurrentWalks::8            0      0.00%    100.00% # Number of outstanding walks
system.gpu.shader_mmu.concurrentWalks::9            0      0.00%    100.00% # Number of outstanding walks
system.gpu.shader_mmu.concurrentWalks::10            0      0.00%    100.00% # Number of outstanding walks
system.gpu.shader_mmu.concurrentWalks::11            0      0.00%    100.00% # Number of outstanding walks
system.gpu.shader_mmu.concurrentWalks::12            0      0.00%    100.00% # Number of outstanding walks
system.gpu.shader_mmu.concurrentWalks::13            0      0.00%    100.00% # Number of outstanding walks
system.gpu.shader_mmu.concurrentWalks::14            0      0.00%    100.00% # Number of outstanding walks
system.gpu.shader_mmu.concurrentWalks::15            0      0.00%    100.00% # Number of outstanding walks
system.gpu.shader_mmu.concurrentWalks::total           29                       # Number of outstanding walks
system.gpu.shader_mmu.pagewalkLatency::samples           29                       # Latency to complete the pagewalk
system.gpu.shader_mmu.pagewalkLatency::mean            0                       # Latency to complete the pagewalk
system.gpu.shader_mmu.pagewalkLatency::gmean            0                       # Latency to complete the pagewalk
system.gpu.shader_mmu.pagewalkLatency::stdev            0                       # Latency to complete the pagewalk
system.gpu.shader_mmu.pagewalkLatency::0           29    100.00%    100.00% # Latency to complete the pagewalk
system.gpu.shader_mmu.pagewalkLatency::1            0      0.00%    100.00% # Latency to complete the pagewalk
system.gpu.shader_mmu.pagewalkLatency::2            0      0.00%    100.00% # Latency to complete the pagewalk
system.gpu.shader_mmu.pagewalkLatency::3            0      0.00%    100.00% # Latency to complete the pagewalk
system.gpu.shader_mmu.pagewalkLatency::4            0      0.00%    100.00% # Latency to complete the pagewalk
system.gpu.shader_mmu.pagewalkLatency::5            0      0.00%    100.00% # Latency to complete the pagewalk
system.gpu.shader_mmu.pagewalkLatency::6            0      0.00%    100.00% # Latency to complete the pagewalk
system.gpu.shader_mmu.pagewalkLatency::7            0      0.00%    100.00% # Latency to complete the pagewalk
system.gpu.shader_mmu.pagewalkLatency::8            0      0.00%    100.00% # Latency to complete the pagewalk
system.gpu.shader_mmu.pagewalkLatency::9            0      0.00%    100.00% # Latency to complete the pagewalk
system.gpu.shader_mmu.pagewalkLatency::10            0      0.00%    100.00% # Latency to complete the pagewalk
system.gpu.shader_mmu.pagewalkLatency::11            0      0.00%    100.00% # Latency to complete the pagewalk
system.gpu.shader_mmu.pagewalkLatency::12            0      0.00%    100.00% # Latency to complete the pagewalk
system.gpu.shader_mmu.pagewalkLatency::13            0      0.00%    100.00% # Latency to complete the pagewalk
system.gpu.shader_mmu.pagewalkLatency::14            0      0.00%    100.00% # Latency to complete the pagewalk
system.gpu.shader_mmu.pagewalkLatency::15            0      0.00%    100.00% # Latency to complete the pagewalk
system.gpu.shader_mmu.pagewalkLatency::16            0      0.00%    100.00% # Latency to complete the pagewalk
system.gpu.shader_mmu.pagewalkLatency::17            0      0.00%    100.00% # Latency to complete the pagewalk
system.gpu.shader_mmu.pagewalkLatency::18            0      0.00%    100.00% # Latency to complete the pagewalk
system.gpu.shader_mmu.pagewalkLatency::19            0      0.00%    100.00% # Latency to complete the pagewalk
system.gpu.shader_mmu.pagewalkLatency::20            0      0.00%    100.00% # Latency to complete the pagewalk
system.gpu.shader_mmu.pagewalkLatency::21            0      0.00%    100.00% # Latency to complete the pagewalk
system.gpu.shader_mmu.pagewalkLatency::22            0      0.00%    100.00% # Latency to complete the pagewalk
system.gpu.shader_mmu.pagewalkLatency::23            0      0.00%    100.00% # Latency to complete the pagewalk
system.gpu.shader_mmu.pagewalkLatency::24            0      0.00%    100.00% # Latency to complete the pagewalk
system.gpu.shader_mmu.pagewalkLatency::25            0      0.00%    100.00% # Latency to complete the pagewalk
system.gpu.shader_mmu.pagewalkLatency::26            0      0.00%    100.00% # Latency to complete the pagewalk
system.gpu.shader_mmu.pagewalkLatency::27            0      0.00%    100.00% # Latency to complete the pagewalk
system.gpu.shader_mmu.pagewalkLatency::28            0      0.00%    100.00% # Latency to complete the pagewalk
system.gpu.shader_mmu.pagewalkLatency::29            0      0.00%    100.00% # Latency to complete the pagewalk
system.gpu.shader_mmu.pagewalkLatency::30            0      0.00%    100.00% # Latency to complete the pagewalk
system.gpu.shader_mmu.pagewalkLatency::31            0      0.00%    100.00% # Latency to complete the pagewalk
system.gpu.shader_mmu.pagewalkLatency::total           29                       # Latency to complete the pagewalk
system.gpu.kernels_started                          9                       # Number of kernels started
system.gpu.kernels_completed                        9                       # Number of kernels completed
system.gpu.ce.device_dtb.hits                       0                       # Number of hits in this TLB
system.gpu.ce.device_dtb.misses                     0                       # Number of misses in this TLB
system.gpu.ce.device_dtb.hitRate                  nan                       # Hit rate for this TLB
system.gpu.ce.host_dtb.hits                       401                       # Number of hits in this TLB
system.gpu.ce.host_dtb.misses                      29                       # Number of misses in this TLB
system.gpu.ce.host_dtb.hitRate               0.932558                       # Hit rate for this TLB
system.gpu.shader_cores0.itb.hits                   0                       # Number of hits in this TLB
system.gpu.shader_cores0.itb.misses                 0                       # Number of misses in this TLB
system.gpu.shader_cores0.itb.hitRate              nan                       # Hit rate for this TLB
system.gpu.shader_cores0.local_loads                0                       # Number of loads from local space
system.gpu.shader_cores0.local_stores               0                       # Number of stores to local space
system.gpu.shader_cores0.shared_loads          363380                       # Number of loads from shared space
system.gpu.shader_cores0.shared_stores          28364                       # Number of stores to shared space
system.gpu.shader_cores0.param_kernel_loads       744512                       # Number of loads from kernel parameter space
system.gpu.shader_cores0.param_local_loads            0                       # Number of loads from local parameter space
system.gpu.shader_cores0.param_local_stores            0                       # Number of stores to local parameter space
system.gpu.shader_cores0.const_loads                0                       # Number of loads from constant space
system.gpu.shader_cores0.tex_loads                  0                       # Number of loads from texture space
system.gpu.shader_cores0.global_loads         1830267                       # Number of loads from global space
system.gpu.shader_cores0.global_stores           8599                       # Number of stores to global space
system.gpu.shader_cores0.surf_loads                 0                       # Number of loads from surface space
system.gpu.shader_cores0.generic_loads              0                       # Number of loads from generic spaces (global, shared, local)
system.gpu.shader_cores0.generic_stores             0                       # Number of stores to generic spaces (global, shared, local)
system.gpu.shader_cores0.inst_cache_requests           50                       # Number of instruction cache requests sent
system.gpu.shader_cores0.inst_cache_retries            0                       # Number of instruction cache retries
system.gpu.shader_cores0.inst_counts::0             0                       # Inst counts: 1: ALU, 2: MAD, 3: CTRL, 4: SFU, 5: MEM, 6: TEX, 7: NOP
system.gpu.shader_cores0.inst_counts::1      11392683                       # Inst counts: 1: ALU, 2: MAD, 3: CTRL, 4: SFU, 5: MEM, 6: TEX, 7: NOP
system.gpu.shader_cores0.inst_counts::2       1826409                       # Inst counts: 1: ALU, 2: MAD, 3: CTRL, 4: SFU, 5: MEM, 6: TEX, 7: NOP
system.gpu.shader_cores0.inst_counts::3       1630124                       # Inst counts: 1: ALU, 2: MAD, 3: CTRL, 4: SFU, 5: MEM, 6: TEX, 7: NOP
system.gpu.shader_cores0.inst_counts::4        247872                       # Inst counts: 1: ALU, 2: MAD, 3: CTRL, 4: SFU, 5: MEM, 6: TEX, 7: NOP
system.gpu.shader_cores0.inst_counts::5       2975122                       # Inst counts: 1: ALU, 2: MAD, 3: CTRL, 4: SFU, 5: MEM, 6: TEX, 7: NOP
system.gpu.shader_cores0.inst_counts::6             0                       # Inst counts: 1: ALU, 2: MAD, 3: CTRL, 4: SFU, 5: MEM, 6: TEX, 7: NOP
system.gpu.shader_cores0.inst_counts::7             0                       # Inst counts: 1: ALU, 2: MAD, 3: CTRL, 4: SFU, 5: MEM, 6: TEX, 7: NOP
system.gpu.shader_cores0.activeCycles          691642                       # Number of cycles this shader was executing a CTA
system.gpu.shader_cores0.notStalledCycles       463179                       # Number of cycles this shader was actually executing at least one instance
system.gpu.shader_cores0.instInstances       18072210                       # Total instructions executed by all PEs in the core
system.gpu.shader_cores0.instPerCycle       26.129428                       # Instruction instances per cycle
system.gpu.shader_cores0.kernels_completed            8                       # Number of kernels completed
system.gpu.shader_cores0.lsq.data_tlb.hits            0                       # Number of hits in this TLB
system.gpu.shader_cores0.lsq.data_tlb.misses            0                       # Number of misses in this TLB
system.gpu.shader_cores0.lsq.data_tlb.hitRate          nan                       # Hit rate for this TLB
system.gpu.shader_cores0.lsq.warpInstBufActive::samples    901702666                       # Histogram of number of active warp inst buffers at a given time
system.gpu.shader_cores0.lsq.warpInstBufActive::mean     3.419441                       # Histogram of number of active warp inst buffers at a given time
system.gpu.shader_cores0.lsq.warpInstBufActive::gmean          nan                       # Histogram of number of active warp inst buffers at a given time
system.gpu.shader_cores0.lsq.warpInstBufActive::stdev     8.338697                       # Histogram of number of active warp inst buffers at a given time
system.gpu.shader_cores0.lsq.warpInstBufActive::0     79743295      8.84%      8.84% # Histogram of number of active warp inst buffers at a given time
system.gpu.shader_cores0.lsq.warpInstBufActive::1    254925026     28.27%     37.12% # Histogram of number of active warp inst buffers at a given time
system.gpu.shader_cores0.lsq.warpInstBufActive::2    238077116     26.40%     63.52% # Histogram of number of active warp inst buffers at a given time
system.gpu.shader_cores0.lsq.warpInstBufActive::3    163393289     18.12%     81.64% # Histogram of number of active warp inst buffers at a given time
system.gpu.shader_cores0.lsq.warpInstBufActive::4     88610861      9.83%     91.47% # Histogram of number of active warp inst buffers at a given time
system.gpu.shader_cores0.lsq.warpInstBufActive::5     35196270      3.90%     95.37% # Histogram of number of active warp inst buffers at a given time
system.gpu.shader_cores0.lsq.warpInstBufActive::6     11420568      1.27%     96.64% # Histogram of number of active warp inst buffers at a given time
system.gpu.shader_cores0.lsq.warpInstBufActive::7      3755412      0.42%     97.05% # Histogram of number of active warp inst buffers at a given time
system.gpu.shader_cores0.lsq.warpInstBufActive::8      1016019      0.11%     97.16% # Histogram of number of active warp inst buffers at a given time
system.gpu.shader_cores0.lsq.warpInstBufActive::9       425842      0.05%     97.21% # Histogram of number of active warp inst buffers at a given time
system.gpu.shader_cores0.lsq.warpInstBufActive::10       348676      0.04%     97.25% # Histogram of number of active warp inst buffers at a given time
system.gpu.shader_cores0.lsq.warpInstBufActive::11       411552      0.05%     97.30% # Histogram of number of active warp inst buffers at a given time
system.gpu.shader_cores0.lsq.warpInstBufActive::12       204347      0.02%     97.32% # Histogram of number of active warp inst buffers at a given time
system.gpu.shader_cores0.lsq.warpInstBufActive::13       212921      0.02%     97.34% # Histogram of number of active warp inst buffers at a given time
system.gpu.shader_cores0.lsq.warpInstBufActive::14       318667      0.04%     97.38% # Histogram of number of active warp inst buffers at a given time
system.gpu.shader_cores0.lsq.warpInstBufActive::15       191486      0.02%     97.40% # Histogram of number of active warp inst buffers at a given time
system.gpu.shader_cores0.lsq.warpInstBufActive::16       137184      0.02%     97.41% # Histogram of number of active warp inst buffers at a given time
system.gpu.shader_cores0.lsq.warpInstBufActive::17       157190      0.02%     97.43% # Histogram of number of active warp inst buffers at a given time
system.gpu.shader_cores0.lsq.warpInstBufActive::18       252933      0.03%     97.46% # Histogram of number of active warp inst buffers at a given time
system.gpu.shader_cores0.lsq.warpInstBufActive::19       228640      0.03%     97.49% # Histogram of number of active warp inst buffers at a given time
system.gpu.shader_cores0.lsq.warpInstBufActive::20       297232      0.03%     97.52% # Histogram of number of active warp inst buffers at a given time
system.gpu.shader_cores0.lsq.warpInstBufActive::21       145758      0.02%     97.53% # Histogram of number of active warp inst buffers at a given time
system.gpu.shader_cores0.lsq.warpInstBufActive::22       170051      0.02%     97.55% # Histogram of number of active warp inst buffers at a given time
system.gpu.shader_cores0.lsq.warpInstBufActive::23       280084      0.03%     97.58% # Histogram of number of active warp inst buffers at a given time
system.gpu.shader_cores0.lsq.warpInstBufActive::24       260078      0.03%     97.61% # Histogram of number of active warp inst buffers at a given time
system.gpu.shader_cores0.lsq.warpInstBufActive::25       298661      0.03%     97.65% # Histogram of number of active warp inst buffers at a given time
system.gpu.shader_cores0.lsq.warpInstBufActive::26       245788      0.03%     97.67% # Histogram of number of active warp inst buffers at a given time
system.gpu.shader_cores0.lsq.warpInstBufActive::27       367253      0.04%     97.71% # Histogram of number of active warp inst buffers at a given time
system.gpu.shader_cores0.lsq.warpInstBufActive::28       351534      0.04%     97.75% # Histogram of number of active warp inst buffers at a given time
system.gpu.shader_cores0.lsq.warpInstBufActive::29       480144      0.05%     97.81% # Histogram of number of active warp inst buffers at a given time
system.gpu.shader_cores0.lsq.warpInstBufActive::30       168622      0.02%     97.83% # Histogram of number of active warp inst buffers at a given time
system.gpu.shader_cores0.lsq.warpInstBufActive::31       177196      0.02%     97.84% # Histogram of number of active warp inst buffers at a given time
system.gpu.shader_cores0.lsq.warpInstBufActive::32       100030      0.01%     97.86% # Histogram of number of active warp inst buffers at a given time
system.gpu.shader_cores0.lsq.warpInstBufActive::33       151474      0.02%     97.87% # Histogram of number of active warp inst buffers at a given time
system.gpu.shader_cores0.lsq.warpInstBufActive::34       588748      0.07%     97.94% # Histogram of number of active warp inst buffers at a given time
system.gpu.shader_cores0.lsq.warpInstBufActive::35       158619      0.02%     97.96% # Histogram of number of active warp inst buffers at a given time
system.gpu.shader_cores0.lsq.warpInstBufActive::36       247217      0.03%     97.98% # Histogram of number of active warp inst buffers at a given time
system.gpu.shader_cores0.lsq.warpInstBufActive::37       284371      0.03%     98.01% # Histogram of number of active warp inst buffers at a given time
system.gpu.shader_cores0.lsq.warpInstBufActive::38       484431      0.05%     98.07% # Histogram of number of active warp inst buffers at a given time
system.gpu.shader_cores0.lsq.warpInstBufActive::39        61447      0.01%     98.08% # Histogram of number of active warp inst buffers at a given time
system.gpu.shader_cores0.lsq.warpInstBufActive::40        65734      0.01%     98.08% # Histogram of number of active warp inst buffers at a given time
system.gpu.shader_cores0.lsq.warpInstBufActive::41       230069      0.03%     98.11% # Histogram of number of active warp inst buffers at a given time
system.gpu.shader_cores0.lsq.warpInstBufActive::42        74308      0.01%     98.12% # Histogram of number of active warp inst buffers at a given time
system.gpu.shader_cores0.lsq.warpInstBufActive::43        60018      0.01%     98.12% # Histogram of number of active warp inst buffers at a given time
system.gpu.shader_cores0.lsq.warpInstBufActive::44        87169      0.01%     98.13% # Histogram of number of active warp inst buffers at a given time
system.gpu.shader_cores0.lsq.warpInstBufActive::45        55731      0.01%     98.14% # Histogram of number of active warp inst buffers at a given time
system.gpu.shader_cores0.lsq.warpInstBufActive::46       188628      0.02%     98.16% # Histogram of number of active warp inst buffers at a given time
system.gpu.shader_cores0.lsq.warpInstBufActive::47       411552      0.05%     98.21% # Histogram of number of active warp inst buffers at a given time
system.gpu.shader_cores0.lsq.warpInstBufActive::48       421555      0.05%     98.25% # Histogram of number of active warp inst buffers at a given time
system.gpu.shader_cores0.lsq.warpInstBufActive::49       510153      0.06%     98.31% # Histogram of number of active warp inst buffers at a given time
system.gpu.shader_cores0.lsq.warpInstBufActive::50       543020      0.06%     98.37% # Histogram of number of active warp inst buffers at a given time
system.gpu.shader_cores0.lsq.warpInstBufActive::51       405836      0.05%     98.41% # Histogram of number of active warp inst buffers at a given time
system.gpu.shader_cores0.lsq.warpInstBufActive::52       410123      0.05%     98.46% # Histogram of number of active warp inst buffers at a given time
system.gpu.shader_cores0.lsq.warpInstBufActive::53       438703      0.05%     98.51% # Histogram of number of active warp inst buffers at a given time
system.gpu.shader_cores0.lsq.warpInstBufActive::54       534446      0.06%     98.57% # Histogram of number of active warp inst buffers at a given time
system.gpu.shader_cores0.lsq.warpInstBufActive::55       465854      0.05%     98.62% # Histogram of number of active warp inst buffers at a given time
system.gpu.shader_cores0.lsq.warpInstBufActive::56       564455      0.06%     98.68% # Histogram of number of active warp inst buffers at a given time
system.gpu.shader_cores0.lsq.warpInstBufActive::57        51444      0.01%     98.69% # Histogram of number of active warp inst buffers at a given time
system.gpu.shader_cores0.lsq.warpInstBufActive::58        27151      0.00%     98.69% # Histogram of number of active warp inst buffers at a given time
system.gpu.shader_cores0.lsq.warpInstBufActive::59        72879      0.01%     98.70% # Histogram of number of active warp inst buffers at a given time
system.gpu.shader_cores0.lsq.warpInstBufActive::60       207205      0.02%     98.72% # Histogram of number of active warp inst buffers at a given time
system.gpu.shader_cores0.lsq.warpInstBufActive::61       472999      0.05%     98.77% # Histogram of number of active warp inst buffers at a given time
system.gpu.shader_cores0.lsq.warpInstBufActive::62        74308      0.01%     98.78% # Histogram of number of active warp inst buffers at a given time
system.gpu.shader_cores0.lsq.warpInstBufActive::63       493005      0.05%     98.84% # Histogram of number of active warp inst buffers at a given time
system.gpu.shader_cores0.lsq.warpInstBufActive::64     10490289      1.16%    100.00% # Histogram of number of active warp inst buffers at a given time
system.gpu.shader_cores0.lsq.warpInstBufActive::total    901702666                       # Histogram of number of active warp inst buffers at a given time
system.gpu.shader_cores0.lsq.cacheAccesses     0.294107                       # Average number of concurrent outstanding cache accesses
system.gpu.shader_cores0.lsq.writebackBlockedCycles        11985                       # Number of cycles blocked for core writeback stage
system.gpu.shader_cores0.lsq.mshrHitQueued         8561                       # Number of hits on blocked lines in MSHRs
system.gpu.shader_cores0.lsq.mshrsFullCycles            0                       # Number of cycles stalled waiting for an MSHR
system.gpu.shader_cores0.lsq.mshrsFullCount            0                       # Number of times MSHRs filled
system.gpu.shader_cores0.lsq.warpCoalescedAccesses::samples        59266                       # Number of coalesced accesses per warp instruction
system.gpu.shader_cores0.lsq.warpCoalescedAccesses::mean     1.074545                       # Number of coalesced accesses per warp instruction
system.gpu.shader_cores0.lsq.warpCoalescedAccesses::gmean     1.024673                       # Number of coalesced accesses per warp instruction
system.gpu.shader_cores0.lsq.warpCoalescedAccesses::stdev     0.892507                       # Number of coalesced accesses per warp instruction
system.gpu.shader_cores0.lsq.warpCoalescedAccesses::0            0      0.00%      0.00% # Number of coalesced accesses per warp instruction
system.gpu.shader_cores0.lsq.warpCoalescedAccesses::1        58198     98.20%     98.20% # Number of coalesced accesses per warp instruction
system.gpu.shader_cores0.lsq.warpCoalescedAccesses::2          383      0.65%     98.84% # Number of coalesced accesses per warp instruction
system.gpu.shader_cores0.lsq.warpCoalescedAccesses::3          179      0.30%     99.15% # Number of coalesced accesses per warp instruction
system.gpu.shader_cores0.lsq.warpCoalescedAccesses::4          103      0.17%     99.32% # Number of coalesced accesses per warp instruction
system.gpu.shader_cores0.lsq.warpCoalescedAccesses::5           92      0.16%     99.48% # Number of coalesced accesses per warp instruction
system.gpu.shader_cores0.lsq.warpCoalescedAccesses::6           75      0.13%     99.60% # Number of coalesced accesses per warp instruction
system.gpu.shader_cores0.lsq.warpCoalescedAccesses::7           54      0.09%     99.69% # Number of coalesced accesses per warp instruction
system.gpu.shader_cores0.lsq.warpCoalescedAccesses::8           66      0.11%     99.80% # Number of coalesced accesses per warp instruction
system.gpu.shader_cores0.lsq.warpCoalescedAccesses::9           15      0.03%     99.83% # Number of coalesced accesses per warp instruction
system.gpu.shader_cores0.lsq.warpCoalescedAccesses::10            5      0.01%     99.84% # Number of coalesced accesses per warp instruction
system.gpu.shader_cores0.lsq.warpCoalescedAccesses::11           48      0.08%     99.92% # Number of coalesced accesses per warp instruction
system.gpu.shader_cores0.lsq.warpCoalescedAccesses::12            0      0.00%     99.92% # Number of coalesced accesses per warp instruction
system.gpu.shader_cores0.lsq.warpCoalescedAccesses::13            0      0.00%     99.92% # Number of coalesced accesses per warp instruction
system.gpu.shader_cores0.lsq.warpCoalescedAccesses::14            0      0.00%     99.92% # Number of coalesced accesses per warp instruction
system.gpu.shader_cores0.lsq.warpCoalescedAccesses::15            0      0.00%     99.92% # Number of coalesced accesses per warp instruction
system.gpu.shader_cores0.lsq.warpCoalescedAccesses::16            0      0.00%     99.92% # Number of coalesced accesses per warp instruction
system.gpu.shader_cores0.lsq.warpCoalescedAccesses::17            0      0.00%     99.92% # Number of coalesced accesses per warp instruction
system.gpu.shader_cores0.lsq.warpCoalescedAccesses::18            0      0.00%     99.92% # Number of coalesced accesses per warp instruction
system.gpu.shader_cores0.lsq.warpCoalescedAccesses::19            9      0.02%     99.93% # Number of coalesced accesses per warp instruction
system.gpu.shader_cores0.lsq.warpCoalescedAccesses::20            0      0.00%     99.93% # Number of coalesced accesses per warp instruction
system.gpu.shader_cores0.lsq.warpCoalescedAccesses::21            3      0.01%     99.94% # Number of coalesced accesses per warp instruction
system.gpu.shader_cores0.lsq.warpCoalescedAccesses::22            6      0.01%     99.95% # Number of coalesced accesses per warp instruction
system.gpu.shader_cores0.lsq.warpCoalescedAccesses::23            0      0.00%     99.95% # Number of coalesced accesses per warp instruction
system.gpu.shader_cores0.lsq.warpCoalescedAccesses::24            0      0.00%     99.95% # Number of coalesced accesses per warp instruction
system.gpu.shader_cores0.lsq.warpCoalescedAccesses::25            6      0.01%     99.96% # Number of coalesced accesses per warp instruction
system.gpu.shader_cores0.lsq.warpCoalescedAccesses::26            3      0.01%     99.96% # Number of coalesced accesses per warp instruction
system.gpu.shader_cores0.lsq.warpCoalescedAccesses::27            0      0.00%     99.96% # Number of coalesced accesses per warp instruction
system.gpu.shader_cores0.lsq.warpCoalescedAccesses::28            0      0.00%     99.96% # Number of coalesced accesses per warp instruction
system.gpu.shader_cores0.lsq.warpCoalescedAccesses::29            0      0.00%     99.96% # Number of coalesced accesses per warp instruction
system.gpu.shader_cores0.lsq.warpCoalescedAccesses::30            6      0.01%     99.97% # Number of coalesced accesses per warp instruction
system.gpu.shader_cores0.lsq.warpCoalescedAccesses::31           12      0.02%     99.99% # Number of coalesced accesses per warp instruction
system.gpu.shader_cores0.lsq.warpCoalescedAccesses::32            3      0.01%    100.00% # Number of coalesced accesses per warp instruction
system.gpu.shader_cores0.lsq.warpCoalescedAccesses::total        59266                       # Number of coalesced accesses per warp instruction
system.gpu.shader_cores0.lsq.warpLatencyRead::samples        58378                       # Latency in cycles for whole warp to finish the read
system.gpu.shader_cores0.lsq.warpLatencyRead::mean    28.331854                       # Latency in cycles for whole warp to finish the read
system.gpu.shader_cores0.lsq.warpLatencyRead::gmean    20.344509                       # Latency in cycles for whole warp to finish the read
system.gpu.shader_cores0.lsq.warpLatencyRead::stdev   177.309435                       # Latency in cycles for whole warp to finish the read
system.gpu.shader_cores0.lsq.warpLatencyRead::0-1023        58326     99.91%     99.91% # Latency in cycles for whole warp to finish the read
system.gpu.shader_cores0.lsq.warpLatencyRead::1024-2047           12      0.02%     99.93% # Latency in cycles for whole warp to finish the read
system.gpu.shader_cores0.lsq.warpLatencyRead::2048-3071            0      0.00%     99.93% # Latency in cycles for whole warp to finish the read
system.gpu.shader_cores0.lsq.warpLatencyRead::3072-4095            4      0.01%     99.94% # Latency in cycles for whole warp to finish the read
system.gpu.shader_cores0.lsq.warpLatencyRead::4096-5119            1      0.00%     99.94% # Latency in cycles for whole warp to finish the read
system.gpu.shader_cores0.lsq.warpLatencyRead::5120-6143           16      0.03%     99.97% # Latency in cycles for whole warp to finish the read
system.gpu.shader_cores0.lsq.warpLatencyRead::6144-7167            3      0.01%     99.97% # Latency in cycles for whole warp to finish the read
system.gpu.shader_cores0.lsq.warpLatencyRead::7168-8191           10      0.02%     99.99% # Latency in cycles for whole warp to finish the read
system.gpu.shader_cores0.lsq.warpLatencyRead::8192-9215            6      0.01%    100.00% # Latency in cycles for whole warp to finish the read
system.gpu.shader_cores0.lsq.warpLatencyRead::9216-10239            0      0.00%    100.00% # Latency in cycles for whole warp to finish the read
system.gpu.shader_cores0.lsq.warpLatencyRead::10240-11263            0      0.00%    100.00% # Latency in cycles for whole warp to finish the read
system.gpu.shader_cores0.lsq.warpLatencyRead::11264-12287            0      0.00%    100.00% # Latency in cycles for whole warp to finish the read
system.gpu.shader_cores0.lsq.warpLatencyRead::12288-13311            0      0.00%    100.00% # Latency in cycles for whole warp to finish the read
system.gpu.shader_cores0.lsq.warpLatencyRead::13312-14335            0      0.00%    100.00% # Latency in cycles for whole warp to finish the read
system.gpu.shader_cores0.lsq.warpLatencyRead::14336-15359            0      0.00%    100.00% # Latency in cycles for whole warp to finish the read
system.gpu.shader_cores0.lsq.warpLatencyRead::15360-16383            0      0.00%    100.00% # Latency in cycles for whole warp to finish the read
system.gpu.shader_cores0.lsq.warpLatencyRead::total        58378                       # Latency in cycles for whole warp to finish the read
system.gpu.shader_cores0.lsq.warpLatencyWrite::samples          837                       # Latency in cycles for whole warp to finish the write
system.gpu.shader_cores0.lsq.warpLatencyWrite::mean   265.227001                       # Latency in cycles for whole warp to finish the write
system.gpu.shader_cores0.lsq.warpLatencyWrite::gmean    46.229493                       # Latency in cycles for whole warp to finish the write
system.gpu.shader_cores0.lsq.warpLatencyWrite::stdev   534.639129                       # Latency in cycles for whole warp to finish the write
system.gpu.shader_cores0.lsq.warpLatencyWrite::0-255          661     78.97%     78.97% # Latency in cycles for whole warp to finish the write
system.gpu.shader_cores0.lsq.warpLatencyWrite::256-511           38      4.54%     83.51% # Latency in cycles for whole warp to finish the write
system.gpu.shader_cores0.lsq.warpLatencyWrite::512-767           24      2.87%     86.38% # Latency in cycles for whole warp to finish the write
system.gpu.shader_cores0.lsq.warpLatencyWrite::768-1023           20      2.39%     88.77% # Latency in cycles for whole warp to finish the write
system.gpu.shader_cores0.lsq.warpLatencyWrite::1024-1279           20      2.39%     91.16% # Latency in cycles for whole warp to finish the write
system.gpu.shader_cores0.lsq.warpLatencyWrite::1280-1535           16      1.91%     93.07% # Latency in cycles for whole warp to finish the write
system.gpu.shader_cores0.lsq.warpLatencyWrite::1536-1791           13      1.55%     94.62% # Latency in cycles for whole warp to finish the write
system.gpu.shader_cores0.lsq.warpLatencyWrite::1792-2047           37      4.42%     99.04% # Latency in cycles for whole warp to finish the write
system.gpu.shader_cores0.lsq.warpLatencyWrite::2048-2303            8      0.96%    100.00% # Latency in cycles for whole warp to finish the write
system.gpu.shader_cores0.lsq.warpLatencyWrite::2304-2559            0      0.00%    100.00% # Latency in cycles for whole warp to finish the write
system.gpu.shader_cores0.lsq.warpLatencyWrite::2560-2815            0      0.00%    100.00% # Latency in cycles for whole warp to finish the write
system.gpu.shader_cores0.lsq.warpLatencyWrite::2816-3071            0      0.00%    100.00% # Latency in cycles for whole warp to finish the write
system.gpu.shader_cores0.lsq.warpLatencyWrite::3072-3327            0      0.00%    100.00% # Latency in cycles for whole warp to finish the write
system.gpu.shader_cores0.lsq.warpLatencyWrite::3328-3583            0      0.00%    100.00% # Latency in cycles for whole warp to finish the write
system.gpu.shader_cores0.lsq.warpLatencyWrite::3584-3839            0      0.00%    100.00% # Latency in cycles for whole warp to finish the write
system.gpu.shader_cores0.lsq.warpLatencyWrite::3840-4095            0      0.00%    100.00% # Latency in cycles for whole warp to finish the write
system.gpu.shader_cores0.lsq.warpLatencyWrite::total          837                       # Latency in cycles for whole warp to finish the write
system.gpu.shader_cores0.lsq.warpLatencyFence::samples          576                       # Latency in cycles for whole warp to finish the fence
system.gpu.shader_cores0.lsq.warpLatencyFence::mean     8.281250                       # Latency in cycles for whole warp to finish the fence
system.gpu.shader_cores0.lsq.warpLatencyFence::gmean     6.437398                       # Latency in cycles for whole warp to finish the fence
system.gpu.shader_cores0.lsq.warpLatencyFence::stdev    19.600197                       # Latency in cycles for whole warp to finish the fence
system.gpu.shader_cores0.lsq.warpLatencyFence::0-15          560     97.22%     97.22% # Latency in cycles for whole warp to finish the fence
system.gpu.shader_cores0.lsq.warpLatencyFence::16-31            9      1.56%     98.78% # Latency in cycles for whole warp to finish the fence
system.gpu.shader_cores0.lsq.warpLatencyFence::32-47            0      0.00%     98.78% # Latency in cycles for whole warp to finish the fence
system.gpu.shader_cores0.lsq.warpLatencyFence::48-63            1      0.17%     98.96% # Latency in cycles for whole warp to finish the fence
system.gpu.shader_cores0.lsq.warpLatencyFence::64-79            2      0.35%     99.31% # Latency in cycles for whole warp to finish the fence
system.gpu.shader_cores0.lsq.warpLatencyFence::80-95            0      0.00%     99.31% # Latency in cycles for whole warp to finish the fence
system.gpu.shader_cores0.lsq.warpLatencyFence::96-111            0      0.00%     99.31% # Latency in cycles for whole warp to finish the fence
system.gpu.shader_cores0.lsq.warpLatencyFence::112-127            0      0.00%     99.31% # Latency in cycles for whole warp to finish the fence
system.gpu.shader_cores0.lsq.warpLatencyFence::128-143            0      0.00%     99.31% # Latency in cycles for whole warp to finish the fence
system.gpu.shader_cores0.lsq.warpLatencyFence::144-159            0      0.00%     99.31% # Latency in cycles for whole warp to finish the fence
system.gpu.shader_cores0.lsq.warpLatencyFence::160-175            0      0.00%     99.31% # Latency in cycles for whole warp to finish the fence
system.gpu.shader_cores0.lsq.warpLatencyFence::176-191            0      0.00%     99.31% # Latency in cycles for whole warp to finish the fence
system.gpu.shader_cores0.lsq.warpLatencyFence::192-207            0      0.00%     99.31% # Latency in cycles for whole warp to finish the fence
system.gpu.shader_cores0.lsq.warpLatencyFence::208-223            1      0.17%     99.48% # Latency in cycles for whole warp to finish the fence
system.gpu.shader_cores0.lsq.warpLatencyFence::224-239            1      0.17%     99.65% # Latency in cycles for whole warp to finish the fence
system.gpu.shader_cores0.lsq.warpLatencyFence::240-255            2      0.35%    100.00% # Latency in cycles for whole warp to finish the fence
system.gpu.shader_cores0.lsq.warpLatencyFence::total          576                       # Latency in cycles for whole warp to finish the fence
system.gpu.shader_cores0.lsq.warpLatencyAtomic::samples           51                       # Latency in cycles for whole warp to finish the atomic
system.gpu.shader_cores0.lsq.warpLatencyAtomic::mean  5430.470588                       # Latency in cycles for whole warp to finish the atomic
system.gpu.shader_cores0.lsq.warpLatencyAtomic::gmean  3548.957916                       # Latency in cycles for whole warp to finish the atomic
system.gpu.shader_cores0.lsq.warpLatencyAtomic::stdev  2990.191448                       # Latency in cycles for whole warp to finish the atomic
system.gpu.shader_cores0.lsq.warpLatencyAtomic::0-1023            5      9.80%      9.80% # Latency in cycles for whole warp to finish the atomic
system.gpu.shader_cores0.lsq.warpLatencyAtomic::1024-2047            4      7.84%     17.65% # Latency in cycles for whole warp to finish the atomic
system.gpu.shader_cores0.lsq.warpLatencyAtomic::2048-3071            4      7.84%     25.49% # Latency in cycles for whole warp to finish the atomic
system.gpu.shader_cores0.lsq.warpLatencyAtomic::3072-4095            4      7.84%     33.33% # Latency in cycles for whole warp to finish the atomic
system.gpu.shader_cores0.lsq.warpLatencyAtomic::4096-5119            6     11.76%     45.10% # Latency in cycles for whole warp to finish the atomic
system.gpu.shader_cores0.lsq.warpLatencyAtomic::5120-6143            4      7.84%     52.94% # Latency in cycles for whole warp to finish the atomic
system.gpu.shader_cores0.lsq.warpLatencyAtomic::6144-7167            6     11.76%     64.71% # Latency in cycles for whole warp to finish the atomic
system.gpu.shader_cores0.lsq.warpLatencyAtomic::7168-8191            6     11.76%     76.47% # Latency in cycles for whole warp to finish the atomic
system.gpu.shader_cores0.lsq.warpLatencyAtomic::8192-9215            8     15.69%     92.16% # Latency in cycles for whole warp to finish the atomic
system.gpu.shader_cores0.lsq.warpLatencyAtomic::9216-10239            4      7.84%    100.00% # Latency in cycles for whole warp to finish the atomic
system.gpu.shader_cores0.lsq.warpLatencyAtomic::10240-11263            0      0.00%    100.00% # Latency in cycles for whole warp to finish the atomic
system.gpu.shader_cores0.lsq.warpLatencyAtomic::11264-12287            0      0.00%    100.00% # Latency in cycles for whole warp to finish the atomic
system.gpu.shader_cores0.lsq.warpLatencyAtomic::12288-13311            0      0.00%    100.00% # Latency in cycles for whole warp to finish the atomic
system.gpu.shader_cores0.lsq.warpLatencyAtomic::13312-14335            0      0.00%    100.00% # Latency in cycles for whole warp to finish the atomic
system.gpu.shader_cores0.lsq.warpLatencyAtomic::14336-15359            0      0.00%    100.00% # Latency in cycles for whole warp to finish the atomic
system.gpu.shader_cores0.lsq.warpLatencyAtomic::15360-16383            0      0.00%    100.00% # Latency in cycles for whole warp to finish the atomic
system.gpu.shader_cores0.lsq.warpLatencyAtomic::total           51                       # Latency in cycles for whole warp to finish the atomic
system.gpu.shader_cores0.lsq.tlbMissLatency::samples            0                       # Latency in cycles for TLB miss
system.gpu.shader_cores0.lsq.tlbMissLatency::mean          nan                       # Latency in cycles for TLB miss
system.gpu.shader_cores0.lsq.tlbMissLatency::gmean          nan                       # Latency in cycles for TLB miss
system.gpu.shader_cores0.lsq.tlbMissLatency::stdev          nan                       # Latency in cycles for TLB miss
system.gpu.shader_cores0.lsq.tlbMissLatency::0            0                       # Latency in cycles for TLB miss
system.gpu.shader_cores0.lsq.tlbMissLatency::1            0                       # Latency in cycles for TLB miss
system.gpu.shader_cores0.lsq.tlbMissLatency::2            0                       # Latency in cycles for TLB miss
system.gpu.shader_cores0.lsq.tlbMissLatency::3            0                       # Latency in cycles for TLB miss
system.gpu.shader_cores0.lsq.tlbMissLatency::4            0                       # Latency in cycles for TLB miss
system.gpu.shader_cores0.lsq.tlbMissLatency::5            0                       # Latency in cycles for TLB miss
system.gpu.shader_cores0.lsq.tlbMissLatency::6            0                       # Latency in cycles for TLB miss
system.gpu.shader_cores0.lsq.tlbMissLatency::7            0                       # Latency in cycles for TLB miss
system.gpu.shader_cores0.lsq.tlbMissLatency::8            0                       # Latency in cycles for TLB miss
system.gpu.shader_cores0.lsq.tlbMissLatency::9            0                       # Latency in cycles for TLB miss
system.gpu.shader_cores0.lsq.tlbMissLatency::10            0                       # Latency in cycles for TLB miss
system.gpu.shader_cores0.lsq.tlbMissLatency::11            0                       # Latency in cycles for TLB miss
system.gpu.shader_cores0.lsq.tlbMissLatency::12            0                       # Latency in cycles for TLB miss
system.gpu.shader_cores0.lsq.tlbMissLatency::13            0                       # Latency in cycles for TLB miss
system.gpu.shader_cores0.lsq.tlbMissLatency::14            0                       # Latency in cycles for TLB miss
system.gpu.shader_cores0.lsq.tlbMissLatency::15            0                       # Latency in cycles for TLB miss
system.gpu.shader_cores0.lsq.tlbMissLatency::total            0                       # Latency in cycles for TLB miss
system.gpu.shader_cores1.itb.hits                   0                       # Number of hits in this TLB
system.gpu.shader_cores1.itb.misses                 0                       # Number of misses in this TLB
system.gpu.shader_cores1.itb.hitRate              nan                       # Hit rate for this TLB
system.gpu.shader_cores1.local_loads                0                       # Number of loads from local space
system.gpu.shader_cores1.local_stores               0                       # Number of stores to local space
system.gpu.shader_cores1.shared_loads          283586                       # Number of loads from shared space
system.gpu.shader_cores1.shared_stores          27090                       # Number of stores to shared space
system.gpu.shader_cores1.param_kernel_loads       575944                       # Number of loads from kernel parameter space
system.gpu.shader_cores1.param_local_loads            0                       # Number of loads from local parameter space
system.gpu.shader_cores1.param_local_stores            0                       # Number of stores to local parameter space
system.gpu.shader_cores1.const_loads                0                       # Number of loads from constant space
system.gpu.shader_cores1.tex_loads                  0                       # Number of loads from texture space
[...]
system.ruby.Directory.miss_latency_hist.forward_to_first_response::total            1                      
system.ruby.Directory.miss_latency_hist.first_response_to_completion::bucket_size           16                      
system.ruby.Directory.miss_latency_hist.first_response_to_completion::max_bucket          159                      
system.ruby.Directory.miss_latency_hist.first_response_to_completion::samples            1                      
system.ruby.Directory.miss_latency_hist.first_response_to_completion::mean          153                      
system.ruby.Directory.miss_latency_hist.first_response_to_completion::gmean   153.000000                      
system.ruby.Directory.miss_latency_hist.first_response_to_completion::stdev          nan                      
system.ruby.Directory.miss_latency_hist.first_response_to_completion |           0      0.00%      0.00% |           0      0.00%      0.00% |           0      0.00%      0.00% |           0      0.00%      0.00% |           0      0.00%      0.00% |           0      0.00%      0.00% |           0      0.00%      0.00% |           0      0.00%      0.00% |           0      0.00%      0.00% |           1    100.00%    100.00%
system.ruby.Directory.miss_latency_hist.first_response_to_completion::total            1                      
system.ruby.LD.L1Cache.miss_type_mach_latency_hist::bucket_size          256                      
system.ruby.LD.L1Cache.miss_type_mach_latency_hist::max_bucket         2559                      
system.ruby.LD.L1Cache.miss_type_mach_latency_hist::samples       116995                      
system.ruby.LD.L1Cache.miss_type_mach_latency_hist::mean    55.805658                      
system.ruby.LD.L1Cache.miss_type_mach_latency_hist::gmean    49.846788                      
system.ruby.LD.L1Cache.miss_type_mach_latency_hist::stdev    80.537943                      
system.ruby.LD.L1Cache.miss_type_mach_latency_hist |      116089     99.23%     99.23% |         346      0.30%     99.52% |         104      0.09%     99.61% |         149      0.13%     99.74% |         162      0.14%     99.88% |          77      0.07%     99.94% |          36      0.03%     99.97% |          21      0.02%     99.99% |          11      0.01%    100.00% |           0      0.00%    100.00%
system.ruby.LD.L1Cache.miss_type_mach_latency_hist::total       116995                      
system.ruby.LD.Directory.miss_type_mach_latency_hist::bucket_size          128                      
system.ruby.LD.Directory.miss_type_mach_latency_hist::max_bucket         1279                      
system.ruby.LD.Directory.miss_type_mach_latency_hist::samples         4260                      
system.ruby.LD.Directory.miss_type_mach_latency_hist::mean   203.045775                      
system.ruby.LD.Directory.miss_type_mach_latency_hist::gmean   194.974154                      
system.ruby.LD.Directory.miss_type_mach_latency_hist::stdev    76.102648                      
system.ruby.LD.Directory.miss_type_mach_latency_hist |           0      0.00%      0.00% |        3991     93.69%     93.69% |         124      2.91%     96.60% |          60      1.41%     98.00% |          48      1.13%     99.13% |          31      0.73%     99.86% |           5      0.12%     99.98% |           1      0.02%    100.00% |           0      0.00%    100.00% |           0      0.00%    100.00%
system.ruby.LD.Directory.miss_type_mach_latency_hist::total         4260                      
system.ruby.ST.L1Cache.miss_type_mach_latency_hist::bucket_size          512                      
system.ruby.ST.L1Cache.miss_type_mach_latency_hist::max_bucket         5119                      
system.ruby.ST.L1Cache.miss_type_mach_latency_hist::samples         2097                      
system.ruby.ST.L1Cache.miss_type_mach_latency_hist::mean    68.597043                      
system.ruby.ST.L1Cache.miss_type_mach_latency_hist::gmean    60.512656                      
system.ruby.ST.L1Cache.miss_type_mach_latency_hist::stdev    95.614616                      
system.ruby.ST.L1Cache.miss_type_mach_latency_hist |        2092     99.76%     99.76% |           4      0.19%     99.95% |           0      0.00%     99.95% |           0      0.00%     99.95% |           0      0.00%     99.95% |           0      0.00%     99.95% |           0      0.00%     99.95% |           1      0.05%    100.00% |           0      0.00%    100.00% |           0      0.00%    100.00%
system.ruby.ST.L1Cache.miss_type_mach_latency_hist::total         2097                      
system.ruby.ST.Directory.miss_type_mach_latency_hist::bucket_size         1024                      
system.ruby.ST.Directory.miss_type_mach_latency_hist::max_bucket        10239                      
system.ruby.ST.Directory.miss_type_mach_latency_hist::samples         2673                      
system.ruby.ST.Directory.miss_type_mach_latency_hist::mean  1060.182192                      
system.ruby.ST.Directory.miss_type_mach_latency_hist::gmean   498.809080                      
system.ruby.ST.Directory.miss_type_mach_latency_hist::stdev  1465.436359                      
system.ruby.ST.Directory.miss_type_mach_latency_hist |        2034     76.09%     76.09% |         118      4.41%     80.51% |         159      5.95%     86.46% |         173      6.47%     92.93% |         108      4.04%     96.97% |          71      2.66%     99.63% |          10      0.37%    100.00% |           0      0.00%    100.00% |           0      0.00%    100.00% |           0      0.00%    100.00%
system.ruby.ST.Directory.miss_type_mach_latency_hist::total         2673                      
system.ruby.IFETCH.L1Cache.miss_type_mach_latency_hist::bucket_size          256                      
system.ruby.IFETCH.L1Cache.miss_type_mach_latency_hist::max_bucket         2559                      
system.ruby.IFETCH.L1Cache.miss_type_mach_latency_hist::samples          163                      
system.ruby.IFETCH.L1Cache.miss_type_mach_latency_hist::mean   167.490798                      
system.ruby.IFETCH.L1Cache.miss_type_mach_latency_hist::gmean   104.961146                      
system.ruby.IFETCH.L1Cache.miss_type_mach_latency_hist::stdev   256.172983                      
system.ruby.IFETCH.L1Cache.miss_type_mach_latency_hist |         150     92.02%     92.02% |           4      2.45%     94.48% |           2      1.23%     95.71% |           2      1.23%     96.93% |           2      1.23%     98.16% |           1      0.61%     98.77% |           2      1.23%    100.00% |           0      0.00%    100.00% |           0      0.00%    100.00% |           0      0.00%    100.00%
system.ruby.IFETCH.L1Cache.miss_type_mach_latency_hist::total          163                      
system.ruby.IFETCH.Directory.miss_type_mach_latency_hist::bucket_size          256                      
system.ruby.IFETCH.Directory.miss_type_mach_latency_hist::max_bucket         2559                      
system.ruby.IFETCH.Directory.miss_type_mach_latency_hist::samples         1521                      
system.ruby.IFETCH.Directory.miss_type_mach_latency_hist::mean   195.321499                      
system.ruby.IFETCH.Directory.miss_type_mach_latency_hist::gmean   192.475243                      
system.ruby.IFETCH.Directory.miss_type_mach_latency_hist::stdev    49.322607                      
system.ruby.IFETCH.Directory.miss_type_mach_latency_hist |        1498     98.49%     98.49% |          21      1.38%     99.87% |           0      0.00%     99.87% |           1      0.07%     99.93% |           0      0.00%     99.93% |           0      0.00%     99.93% |           1      0.07%    100.00% |           0      0.00%    100.00% |           0      0.00%    100.00% |           0      0.00%    100.00%
system.ruby.IFETCH.Directory.miss_type_mach_latency_hist::total         1521                      
system.ruby.RMW_Read.Directory.miss_type_mach_latency_hist::bucket_size           32                      
system.ruby.RMW_Read.Directory.miss_type_mach_latency_hist::max_bucket          319                      
system.ruby.RMW_Read.Directory.miss_type_mach_latency_hist::samples            3                      
system.ruby.RMW_Read.Directory.miss_type_mach_latency_hist::mean   167.666667                      
system.ruby.RMW_Read.Directory.miss_type_mach_latency_hist::gmean   165.717718                      
system.ruby.RMW_Read.Directory.miss_type_mach_latency_hist::stdev    32.347076                      
system.ruby.RMW_Read.Directory.miss_type_mach_latency_hist |           0      0.00%      0.00% |           0      0.00%      0.00% |           0      0.00%      0.00% |           0      0.00%      0.00% |           2     66.67%     66.67% |           0      0.00%     66.67% |           1     33.33%    100.00% |           0      0.00%    100.00% |           0      0.00%    100.00% |           0      0.00%    100.00%
system.ruby.RMW_Read.Directory.miss_type_mach_latency_hist::total            3                      
system.ruby.Locked_RMW_Write.L1Cache.miss_type_mach_latency_hist::bucket_size           32                      
system.ruby.Locked_RMW_Write.L1Cache.miss_type_mach_latency_hist::max_bucket          319                      
system.ruby.Locked_RMW_Write.L1Cache.miss_type_mach_latency_hist::samples         2132                      
system.ruby.Locked_RMW_Write.L1Cache.miss_type_mach_latency_hist::mean    64.908068                      
system.ruby.Locked_RMW_Write.L1Cache.miss_type_mach_latency_hist::gmean    63.669159                      
system.ruby.Locked_RMW_Write.L1Cache.miss_type_mach_latency_hist::stdev    13.187099                      
system.ruby.Locked_RMW_Write.L1Cache.miss_type_mach_latency_hist |           0      0.00%      0.00% |         680     31.89%     31.89% |        1415     66.37%     98.26% |          24      1.13%     99.39% |           8      0.38%     99.77% |           5      0.23%    100.00% |           0      0.00%    100.00% |           0      0.00%    100.00% |           0      0.00%    100.00% |           0      0.00%    100.00%
system.ruby.Locked_RMW_Write.L1Cache.miss_type_mach_latency_hist::total         2132                      
system.ruby.Directory_Controller.GETX          131551      0.00%      0.00%
system.ruby.Directory_Controller.PUTX            7479      0.00%      0.00%
system.ruby.Directory_Controller.PUTX_NotOwner            6      0.00%      0.00%
system.ruby.Directory_Controller.Memory_Data         8457      0.00%      0.00%
system.ruby.Directory_Controller.Memory_Ack         7479      0.00%      0.00%
system.ruby.Directory_Controller.I.GETX          8457      0.00%      0.00%
system.ruby.Directory_Controller.M.GETX        121387      0.00%      0.00%
system.ruby.Directory_Controller.M.PUTX          7479      0.00%      0.00%
system.ruby.Directory_Controller.M.PUTX_NotOwner            6      0.00%      0.00%
system.ruby.Directory_Controller.IM.GETX         1422      0.00%      0.00%
system.ruby.Directory_Controller.IM.Memory_Data         8457      0.00%      0.00%
system.ruby.Directory_Controller.MI.GETX          285      0.00%      0.00%
system.ruby.Directory_Controller.MI.Memory_Ack         7479      0.00%      0.00%
system.ruby.L1Cache_Controller.Load      |      307152     58.61%     58.61% |       60843     11.61%     70.22% |       49135      9.38%     79.59% |       46137      8.80%     88.40% |       60395     11.52%     99.92% |           0      0.00%     99.92% |         424      0.08%    100.00%
system.ruby.L1Cache_Controller.Load::total       524086                      
system.ruby.L1Cache_Controller.Ifetch    |     2360984     99.99%     99.99% |          50      0.00%     99.99% |          58      0.00%     99.99% |          74      0.00%    100.00% |          65      0.00%    100.00% |           0      0.00%    100.00% |           0      0.00%    100.00%
system.ruby.L1Cache_Controller.Ifetch::total      2361231                      
system.ruby.L1Cache_Controller.Store     |      170840     91.72%     91.72% |        2841      1.53%     93.24% |        3072      1.65%     94.89% |        4601      2.47%     97.36% |        4490      2.41%     99.77% |           0      0.00%     99.77% |         423      0.23%    100.00%
system.ruby.L1Cache_Controller.Store::total       186267                      
system.ruby.L1Cache_Controller.Data      |        4405      3.39%      3.39% |       33558     25.84%     29.24% |       26192     20.17%     49.41% |       30173     23.24%     72.65% |       34669     26.70%     99.35% |           0      0.00%     99.35% |         847      0.65%    100.00%
system.ruby.L1Cache_Controller.Data::total       129844                      
system.ruby.L1Cache_Controller.Fwd_GETX  |          87      0.07%      0.07% |       32869     27.08%     27.15% |       25366     20.90%     48.05% |       29142     24.01%     72.05% |       33900     27.93%     99.98% |           0      0.00%     99.98% |          23      0.02%    100.00%
system.ruby.L1Cache_Controller.Fwd_GETX::total       121387                      
system.ruby.L1Cache_Controller.Replacement |        3869     29.41%     29.41% |        1706     12.97%     42.38% |        2132     16.21%     58.58% |        2682     20.39%     78.97% |        1936     14.72%     93.68% |           0      0.00%     93.68% |         831      6.32%    100.00%
system.ruby.L1Cache_Controller.Replacement::total        13156                      
system.ruby.L1Cache_Controller.Writeback_Ack |        3822     51.10%     51.10% |         607      8.12%     59.22% |         713      9.53%     68.75% |         851     11.38%     80.13% |         677      9.05%     89.18% |           0      0.00%     89.18% |         809     10.82%    100.00%
system.ruby.L1Cache_Controller.Writeback_Ack::total         7479                      
system.ruby.L1Cache_Controller.Writeback_Nack |           0      0.00%      0.00% |           3     50.00%     50.00% |           0      0.00%     50.00% |           2     33.33%     83.33% |           1     16.67%    100.00% |           0      0.00%    100.00% |           0      0.00%    100.00%
system.ruby.L1Cache_Controller.Writeback_Nack::total            6                      
system.ruby.L1Cache_Controller.I.Load    |        2348      1.94%      1.94% |       32310     26.65%     28.58% |       24893     20.53%     49.11% |       28271     23.32%     72.43% |       33009     27.22%     99.65% |           0      0.00%     99.65% |         424      0.35%    100.00%
system.ruby.L1Cache_Controller.I.Load::total       121255                      
system.ruby.L1Cache_Controller.I.Ifetch  |        1437     85.33%     85.33% |          50      2.97%     88.30% |          58      3.44%     91.75% |          74      4.39%     96.14% |          65      3.86%    100.00% |           0      0.00%    100.00% |           0      0.00%    100.00%
system.ruby.L1Cache_Controller.I.Ifetch::total         1684                      
system.ruby.L1Cache_Controller.I.Store   |         620      8.98%      8.98% |        1198     17.35%     26.33% |        1241     17.97%     44.30% |        1828     26.47%     70.77% |        1595     23.10%     93.87% |           0      0.00%     93.87% |         423      6.13%    100.00%
system.ruby.L1Cache_Controller.I.Store::total         6905                      
system.ruby.L1Cache_Controller.I.Replacement |          47      0.83%      0.83% |        1096     19.33%     20.16% |        1419     25.02%     45.18% |        1829     32.25%     77.43% |        1258     22.18%     99.61% |           0      0.00%     99.61% |          22      0.39%    100.00%
system.ruby.L1Cache_Controller.I.Replacement::total         5671                      
system.ruby.L1Cache_Controller.II.Writeback_Nack |           0      0.00%      0.00% |           3     50.00%     50.00% |           0      0.00%     50.00% |           2     33.33%     83.33% |           1     16.67%    100.00% |           0      0.00%    100.00% |           0      0.00%    100.00%
system.ruby.L1Cache_Controller.II.Writeback_Nack::total            6                      
system.ruby.L1Cache_Controller.M.Load    |      304804     75.67%     75.67% |       28533      7.08%     82.75% |       24242      6.02%     88.77% |       17866      4.44%     93.20% |       27386      6.80%    100.00% |           0      0.00%    100.00% |           0      0.00%    100.00%
system.ruby.L1Cache_Controller.M.Load::total       402831                      
system.ruby.L1Cache_Controller.M.Ifetch  |     2359547    100.00%    100.00% |           0      0.00%    100.00% |           0      0.00%    100.00% |           0      0.00%    100.00% |           0      0.00%    100.00% |           0      0.00%    100.00% |           0      0.00%    100.00%
system.ruby.L1Cache_Controller.M.Ifetch::total      2359547                      
system.ruby.L1Cache_Controller.M.Store   |      170220     94.90%     94.90% |        1643      0.92%     95.82% |        1831      1.02%     96.84% |        2773      1.55%     98.39% |        2895      1.61%    100.00% |           0      0.00%    100.00% |           0      0.00%    100.00%
system.ruby.L1Cache_Controller.M.Store::total       179362                      
system.ruby.L1Cache_Controller.M.Fwd_GETX |          87      0.07%      0.07% |       32866     27.08%     27.15% |       25366     20.90%     48.05% |       29140     24.01%     72.05% |       33899     27.93%     99.98% |           0      0.00%     99.98% |          23      0.02%    100.00%
system.ruby.L1Cache_Controller.M.Fwd_GETX::total       121381                      
system.ruby.L1Cache_Controller.M.Replacement |        3822     51.06%     51.06% |         610      8.15%     59.21% |         713      9.53%     68.74% |         853     11.40%     80.13% |         678      9.06%     89.19% |           0      0.00%     89.19% |         809     10.81%    100.00%
system.ruby.L1Cache_Controller.M.Replacement::total         7485                      
system.ruby.L1Cache_Controller.MI.Fwd_GETX |           0      0.00%      0.00% |           3     50.00%     50.00% |           0      0.00%     50.00% |           2     33.33%     83.33% |           1     16.67%    100.00% |           0      0.00%    100.00% |           0      0.00%    100.00%
system.ruby.L1Cache_Controller.MI.Fwd_GETX::total            6                      
system.ruby.L1Cache_Controller.MI.Writeback_Ack |        3822     51.10%     51.10% |         607      8.12%     59.22% |         713      9.53%     68.75% |         851     11.38%     80.13% |         677      9.05%     89.18% |           0      0.00%     89.18% |         809     10.82%    100.00%
system.ruby.L1Cache_Controller.MI.Writeback_Ack::total         7479                      
system.ruby.L1Cache_Controller.IS.Data   |        3785      3.08%      3.08% |       32360     26.32%     29.40% |       24951     20.30%     49.70% |       28345     23.06%     72.75% |       33074     26.90%     99.66% |           0      0.00%     99.66% |         424      0.34%    100.00%
system.ruby.L1Cache_Controller.IS.Data::total       122939                      
system.ruby.L1Cache_Controller.IM.Data   |         620      8.98%      8.98% |        1198     17.35%     26.33% |        1241     17.97%     44.30% |        1828     26.47%     70.77% |        1595     23.10%     93.87% |           0      0.00%     93.87% |         423      6.13%    100.00%
system.ruby.L1Cache_Controller.IM.Data::total         6905                      

---------- End Simulation Statistics   ----------
