
---------- Begin Simulation Statistics ----------
sim_seconds                                  0.000030                       # Number of seconds simulated
sim_ticks                                    29672000                       # Number of ticks simulated
final_tick                                   29672000                       # Number of ticks from beginning of simulation (restored from checkpoints and never reset)
sim_freq                                 1000000000000                       # Frequency of simulated ticks
host_inst_rate                                  58598                       # Simulator instruction rate (inst/s)
host_op_rate                                   106140                       # Simulator op (including micro ops) rate (op/s)
host_tick_rate                              323039290                       # Simulator tick rate (ticks/s)
host_mem_usage                                4458108                       # Number of bytes of host memory used
host_seconds                                     0.09                       # Real time elapsed on the host
sim_insts                                        5381                       # Number of instructions simulated
sim_ops                                          9748                       # Number of ops (including micro ops) simulated
system.voltage_domain.voltage                       1                       # Voltage in Volts
system.clk_domain.clock                          1000                       # Clock period in ticks
system.mem_ctrls.clk_domain.clock                2500                       # Clock period in ticks
system.mem_ctrls.bytes_read::ruby.dir_cntrl0        29056                       # Number of bytes read from this memory
system.mem_ctrls.bytes_read::total              29056                       # Number of bytes read from this memory
system.mem_ctrls.num_reads::ruby.dir_cntrl0          227                       # Number of read requests responded to by this memory
system.mem_ctrls.num_reads::total                 227                       # Number of read requests responded to by this memory
system.mem_ctrls.bw_read::ruby.dir_cntrl0    979239687                       # Total read bandwidth from this memory (bytes/s)
system.mem_ctrls.bw_read::total             979239687                       # Total read bandwidth from this memory (bytes/s)
system.mem_ctrls.bw_total::ruby.dir_cntrl0    979239687                       # Total bandwidth to/from this memory (bytes/s)
system.mem_ctrls.bw_total::total            979239687                       # Total bandwidth to/from this memory (bytes/s)
system.mem_ctrls.memReq                           227                       # Total number of memory requests
system.mem_ctrls.memRead                          227                       # Number of memory reads
system.mem_ctrls.memRefresh                       248                       # Number of memory refreshes
system.mem_ctrls.memWaitCycles                     23                       # Delay stalled at the head of the bank queue
system.mem_ctrls.totalStalls                       23                       # Total number of stall cycles
system.mem_ctrls.stallsPerReq                0.101322                       # Expected number of stall cycles per request
system.mem_ctrls.memBankBusy                       19                       # memory stalls due to busy bank
system.mem_ctrls.memBusBusy                         4                       # memory stalls due to busy bus
system.mem_ctrls.memBankCount            |          12      5.29%      5.29% |          10      4.41%      9.69% |          10      4.41%     14.10% |          11      4.85%     18.94% |          13      5.73%     24.67% |           9      3.96%     28.63% |           9      3.96%     32.60% |           8      3.52%     36.12% |           5      2.20%     38.33% |           5      2.20%     40.53% |           8      3.52%     44.05% |           8      3.52%     47.58% |          10      4.41%     51.98% |           6      2.64%     54.63% |           5      2.20%     56.83% |           2      0.88%     57.71% |           5      2.20%     59.91% |           2      0.88%     60.79% |           3      1.32%     62.11% |           4      1.76%     63.88% |           8      3.52%     67.40% |           7      3.08%     70.48% |           2      0.88%     71.37% |           4      1.76%     73.13% |           3      1.32%     74.45% |           5      2.20%     76.65% |           5      2.20%     78.85% |           6      2.64%     81.50% |           6      2.64%     84.14% |          13      5.73%     89.87% |          12      5.29%     95.15% |          11      4.85%    100.00% # Number of accesses per bank
system.mem_ctrls.memBankCount::total              227                       # Number of accesses per bank
system.ruby_clk_domain.clock                      500                       # Clock period in ticks
system.ruby.phys_mem.bytes_read::cpu.inst        54912                       # Number of bytes read from this memory
system.ruby.phys_mem.bytes_read::cpu.data         7066                       # Number of bytes read from this memory
system.ruby.phys_mem.bytes_read::total          61978                       # Number of bytes read from this memory
system.ruby.phys_mem.bytes_inst_read::cpu.inst        54912                       # Number of instructions bytes read from this memory
system.ruby.phys_mem.bytes_inst_read::total        54912                       # Number of instructions bytes read from this memory
system.ruby.phys_mem.bytes_written::cpu.data         7112                       # Number of bytes written to this memory
system.ruby.phys_mem.bytes_written::total         7112                       # Number of bytes written to this memory
system.ruby.phys_mem.num_reads::cpu.inst         6864                       # Number of read requests responded to by this memory
system.ruby.phys_mem.num_reads::cpu.data         1053                       # Number of read requests responded to by this memory
system.ruby.phys_mem.num_reads::total            7917                       # Number of read requests responded to by this memory
system.ruby.phys_mem.num_writes::cpu.data          935                       # Number of write requests responded to by this memory
system.ruby.phys_mem.num_writes::total            935                       # Number of write requests responded to by this memory
system.ruby.phys_mem.bw_read::cpu.inst     1850633594                       # Total read bandwidth from this memory (bytes/s)
system.ruby.phys_mem.bw_read::cpu.data      238136964                       # Total read bandwidth from this memory (bytes/s)
system.ruby.phys_mem.bw_read::total        2088770558                       # Total read bandwidth from this memory (bytes/s)
system.ruby.phys_mem.bw_inst_read::cpu.inst   1850633594                       # Instruction read bandwidth from this memory (bytes/s)
system.ruby.phys_mem.bw_inst_read::total   1850633594                       # Instruction read bandwidth from this memory (bytes/s)
system.ruby.phys_mem.bw_write::cpu.data     239687247                       # Write bandwidth from this memory (bytes/s)
system.ruby.phys_mem.bw_write::total        239687247                       # Write bandwidth from this memory (bytes/s)
system.ruby.phys_mem.bw_total::cpu.inst    1850633594                       # Total bandwidth to/from this memory (bytes/s)
system.ruby.phys_mem.bw_total::cpu.data     477824211                       # Total bandwidth to/from this memory (bytes/s)
system.ruby.phys_mem.bw_total::total       2328457805                       # Total bandwidth to/from this memory (bytes/s)
system.cpu_voltage_domain.voltage                   1                       # Voltage in Volts
system.cpu_clk_domain.clock                       500                       # Clock period in ticks
system.cpu.apic_clk_domain.clock                 8000                       # Clock period in ticks
system.cpu.workload.num_syscalls                   11                       # Number of system calls
system.cpu.numCycles                            59344                       # number of cpu cycles simulated
system.cpu.numWorkItemsStarted                      0                       # number of work items this cpu started
system.cpu.numWorkItemsCompleted                    0                       # number of work items this cpu completed
system.cpu.committedInsts                        5381                       # Number of instructions committed
system.cpu.committedOps                          9748                       # Number of ops (including micro ops) committed
system.cpu.num_int_alu_accesses                  9654                       # Number of integer alu accesses
system.cpu.num_fp_alu_accesses                      0                       # Number of float alu accesses
system.cpu.num_func_calls                         209                       # number of times a function call or return occured
system.cpu.num_conditional_control_insts          899                       # number of instructions that are conditional controls
system.cpu.num_int_insts                         9654                       # number of integer instructions
system.cpu.num_fp_insts                             0                       # number of float instructions
system.cpu.num_int_register_reads               18335                       # number of times the integer registers were read
system.cpu.num_int_register_writes               7527                       # number of times the integer registers were written
system.cpu.num_fp_register_reads                    0                       # number of times the floating registers were read
system.cpu.num_fp_register_writes                   0                       # number of times the floating registers were written
system.cpu.num_cc_register_reads                 6487                       # number of times the CC registers were read
system.cpu.num_cc_register_writes                3536                       # number of times the CC registers were written
system.cpu.num_mem_refs                          1988                       # number of memory refs
system.cpu.num_load_insts                        1053                       # Number of load instructions
system.cpu.num_store_insts                        935                       # Number of store instructions
system.cpu.num_idle_cycles                   0.002000                       # Number of idle cycles
system.cpu.num_busy_cycles               59343.998000                       # Number of busy cycles
system.cpu.not_idle_fraction                 1.000000                       # Percentage of non-idle cycles
system.cpu.idle_fraction                     0.000000                       # Percentage of idle cycles
system.cpu.Branches                              1208                       # Number of branches fetched
system.cpu.op_class::No_OpClass                     1      0.01%      0.01% # Class of executed instruction
system.cpu.op_class::IntAlu                      7749     79.49%     79.50% # Class of executed instruction
system.cpu.op_class::IntMult                        3      0.03%     79.53% # Class of executed instruction
system.cpu.op_class::IntDiv                         7      0.07%     79.61% # Class of executed instruction
system.cpu.op_class::FloatAdd                       0      0.00%     79.61% # Class of executed instruction
system.cpu.op_class::FloatCmp                       0      0.00%     79.61% # Class of executed instruction
system.cpu.op_class::FloatCvt                       0      0.00%     79.61% # Class of executed instruction
system.cpu.op_class::FloatMult                      0      0.00%     79.61% # Class of executed instruction
system.cpu.op_class::FloatDiv                       0      0.00%     79.61% # Class of executed instruction
system.cpu.op_class::FloatSqrt                      0      0.00%     79.61% # Class of executed instruction
system.cpu.op_class::SimdAdd                        0      0.00%     79.61% # Class of executed instruction
system.cpu.op_class::SimdAddAcc                     0      0.00%     79.61% # Class of executed instruction
system.cpu.op_class::SimdAlu                        0      0.00%     79.61% # Class of executed instruction
system.cpu.op_class::SimdCmp                        0      0.00%     79.61% # Class of executed instruction
system.cpu.op_class::SimdCvt                        0      0.00%     79.61% # Class of executed instruction
system.cpu.op_class::SimdMisc                       0      0.00%     79.61% # Class of executed instruction
system.cpu.op_class::SimdMult                       0      0.00%     79.61% # Class of executed instruction
system.cpu.op_class::SimdMultAcc                    0      0.00%     79.61% # Class of executed instruction
system.cpu.op_class::SimdShift                      0      0.00%     79.61% # Class of executed instruction
system.cpu.op_class::SimdShiftAcc                   0      0.00%     79.61% # Class of executed instruction
system.cpu.op_class::SimdSqrt                       0      0.00%     79.61% # Class of executed instruction
system.cpu.op_class::SimdFloatAdd                   0      0.00%     79.61% # Class of executed instruction
system.cpu.op_class::SimdFloatAlu                   0      0.00%     79.61% # Class of executed instruction
system.cpu.op_class::SimdFloatCmp                   0      0.00%     79.61% # Class of executed instruction
system.cpu.op_class::SimdFloatCvt                   0      0.00%     79.61% # Class of executed instruction
system.cpu.op_class::SimdFloatDiv                   0      0.00%     79.61% # Class of executed instruction
system.cpu.op_class::SimdFloatMisc                  0      0.00%     79.61% # Class of executed instruction
system.cpu.op_class::SimdFloatMult                  0      0.00%     79.61% # Class of executed instruction
system.cpu.op_class::SimdFloatMultAcc               0      0.00%     79.61% # Class of executed instruction
system.cpu.op_class::SimdFloatSqrt                  0      0.00%     79.61% # Class of executed instruction
system.cpu.op_class::MemRead                     1053     10.80%     90.41% # Class of executed instruction
system.cpu.op_class::MemWrite                     935      9.59%    100.00% # Class of executed instruction
system.cpu.op_class::IprAccess                      0      0.00%    100.00% # Class of executed instruction
system.cpu.op_class::InstPrefetch                   0      0.00%    100.00% # Class of executed instruction
system.cpu.op_class::total                       9748                       # Class of executed instruction
system.gpu.clk_domain.voltage_domain.voltage            1                       # Voltage in Volts
system.gpu.clk_domain.clock                      1429                       # Clock period in ticks
system.gpu.dram_wrapper.clk_domain.clock          541                       # Clock period in ticks
system.gpu.icnt_wrapper.clk_domain.clock         2858                       # Clock period in ticks
system.ruby.outstanding_req_hist::bucket_size            1                      
system.ruby.outstanding_req_hist::max_bucket            9                      
system.ruby.outstanding_req_hist::samples         8852                      
system.ruby.outstanding_req_hist::mean              1                      
system.ruby.outstanding_req_hist::gmean             1                      
system.ruby.outstanding_req_hist         |           0      0.00%      0.00% |        8852    100.00%    100.00% |           0      0.00%    100.00% |           0      0.00%    100.00% |           0      0.00%    100.00% |           0      0.00%    100.00% |           0      0.00%    100.00% |           0      0.00%    100.00% |           0      0.00%    100.00% |           0      0.00%    100.00%
system.ruby.outstanding_req_hist::total          8852                      
system.ruby.latency_hist::bucket_size              32                      
system.ruby.latency_hist::max_bucket              319                      
system.ruby.latency_hist::samples                8852                      
system.ruby.latency_hist::mean               5.704022                      
system.ruby.latency_hist::gmean              2.234341                      
system.ruby.latency_hist::stdev             22.811693                      
system.ruby.latency_hist                 |        8625     97.44%     97.44% |           0      0.00%     97.44% |           0      0.00%     97.44% |           0      0.00%     97.44% |         224      2.53%     99.97% |           2      0.02%     99.99% |           1      0.01%    100.00% |           0      0.00%    100.00% |           0      0.00%    100.00% |           0      0.00%    100.00%
system.ruby.latency_hist::total                  8852                      
system.ruby.hit_latency_hist::bucket_size            2                      
system.ruby.hit_latency_hist::max_bucket           19                      
system.ruby.hit_latency_hist::samples            8625                      
system.ruby.hit_latency_hist::mean           2.005565                      
system.ruby.hit_latency_hist::gmean          2.001529                      
system.ruby.hit_latency_hist::stdev          0.298367                      
system.ruby.hit_latency_hist             |           0      0.00%      0.00% |        8622     99.97%     99.97% |           0      0.00%     99.97% |           0      0.00%     99.97% |           0      0.00%     99.97% |           0      0.00%     99.97% |           0      0.00%     99.97% |           0      0.00%     99.97% |           0      0.00%     99.97% |           3      0.03%    100.00%
system.ruby.hit_latency_hist::total              8625                      
system.ruby.miss_latency_hist::bucket_size           32                      
system.ruby.miss_latency_hist::max_bucket          319                      
system.ruby.miss_latency_hist::samples            227                      
system.ruby.miss_latency_hist::mean        146.229075                      
system.ruby.miss_latency_hist::gmean       146.171488                      
system.ruby.miss_latency_hist::stdev         4.434423                      
system.ruby.miss_latency_hist            |           0      0.00%      0.00% |           0      0.00%      0.00% |           0      0.00%      0.00% |           0      0.00%      0.00% |         224     98.68%     98.68% |           2      0.88%     99.56% |           1      0.44%    100.00% |           0      0.00%    100.00% |           0      0.00%    100.00% |           0      0.00%    100.00%
system.ruby.miss_latency_hist::total              227                      
system.gpu.shader_mmu.numPagefaults                 0                       # Number of Pagefaults
system.gpu.shader_mmu.numPagewalks                  0                       # Number of Pagewalks
system.gpu.shader_mmu.totalRequests                 0                       # Total number of requests
system.gpu.shader_mmu.retryFailures                 0                       # Times the retry walk after a pagefault failed
system.gpu.shader_mmu.l2hits                        0                       # Hits in the shared L2
system.gpu.shader_mmu.prefetchHits                  0                       # Number of prefetch hits
system.gpu.shader_mmu.numPrefetches                 0                       # Number of prefetchs
system.gpu.shader_mmu.prefetchFaults                0                       # Number of faults caused by prefetches
system.gpu.shader_mmu.pagefaultLatency::samples            0                       # Latency to complete the pagefault
system.gpu.shader_mmu.pagefaultLatency::mean          nan                       # Latency to complete the pagefault
system.gpu.shader_mmu.pagefaultLatency::gmean          nan                       # Latency to complete the pagefault
system.gpu.shader_mmu.pagefaultLatency::stdev          nan                       # Latency to complete the pagefault
system.gpu.shader_mmu.pagefaultLatency::0            0                       # Latency to complete the pagefault
system.gpu.shader_mmu.pagefaultLatency::1            0                       # Latency to complete the pagefault
system.gpu.shader_mmu.pagefaultLatency::2            0                       # Latency to complete the pagefault
system.gpu.shader_mmu.pagefaultLatency::3            0                       # Latency to complete the pagefault
system.gpu.shader_mmu.pagefaultLatency::4            0                       # Latency to complete the pagefault
system.gpu.shader_mmu.pagefaultLatency::5            0                       # Latency to complete the pagefault
system.gpu.shader_mmu.pagefaultLatency::6            0                       # Latency to complete the pagefault
system.gpu.shader_mmu.pagefaultLatency::7            0                       # Latency to complete the pagefault
system.gpu.shader_mmu.pagefaultLatency::8            0                       # Latency to complete the pagefault
system.gpu.shader_mmu.pagefaultLatency::9            0                       # Latency to complete the pagefault
system.gpu.shader_mmu.pagefaultLatency::10            0                       # Latency to complete the pagefault
system.gpu.shader_mmu.pagefaultLatency::11            0                       # Latency to complete the pagefault
system.gpu.shader_mmu.pagefaultLatency::12            0                       # Latency to complete the pagefault
system.gpu.shader_mmu.pagefaultLatency::13            0                       # Latency to complete the pagefault
system.gpu.shader_mmu.pagefaultLatency::14            0                       # Latency to complete the pagefault
system.gpu.shader_mmu.pagefaultLatency::15            0                       # Latency to complete the pagefault
system.gpu.shader_mmu.pagefaultLatency::16            0                       # Latency to complete the pagefault
system.gpu.shader_mmu.pagefaultLatency::17            0                       # Latency to complete the pagefault
system.gpu.shader_mmu.pagefaultLatency::18            0                       # Latency to complete the pagefault
system.gpu.shader_mmu.pagefaultLatency::19            0                       # Latency to complete the pagefault
system.gpu.shader_mmu.pagefaultLatency::20            0                       # Latency to complete the pagefault
system.gpu.shader_mmu.pagefaultLatency::21            0                       # Latency to complete the pagefault
system.gpu.shader_mmu.pagefaultLatency::22            0                       # Latency to complete the pagefault
system.gpu.shader_mmu.pagefaultLatency::23            0                       # Latency to complete the pagefault
system.gpu.shader_mmu.pagefaultLatency::24            0                       # Latency to complete the pagefault
system.gpu.shader_mmu.pagefaultLatency::25            0                       # Latency to complete the pagefault
system.gpu.shader_mmu.pagefaultLatency::26            0                       # Latency to complete the pagefault
system.gpu.shader_mmu.pagefaultLatency::27            0                       # Latency to complete the pagefault
system.gpu.shader_mmu.pagefaultLatency::28            0                       # Latency to complete the pagefault
system.gpu.shader_mmu.pagefaultLatency::29            0                       # Latency to complete the pagefault
system.gpu.shader_mmu.pagefaultLatency::30            0                       # Latency to complete the pagefault
system.gpu.shader_mmu.pagefaultLatency::31            0                       # Latency to complete the pagefault
system.gpu.shader_mmu.pagefaultLatency::total            0                       # Latency to complete the pagefault
system.gpu.shader_mmu.concurrentWalks::samples            0                       # Number of outstanding walks
system.gpu.shader_mmu.concurrentWalks::mean          nan                       # Number of outstanding walks
system.gpu.shader_mmu.concurrentWalks::gmean          nan                       # Number of outstanding walks
system.gpu.shader_mmu.concurrentWalks::stdev          nan                       # Number of outstanding walks
system.gpu.shader_mmu.concurrentWalks::0            0                       # Number of outstanding walks
system.gpu.shader_mmu.concurrentWalks::1            0                       # Number of outstanding walks
system.gpu.shader_mmu.concurrentWalks::2            0                       # Number of outstanding walks
system.gpu.shader_mmu.concurrentWalks::3            0                       # Number of outstanding walks
system.gpu.shader_mmu.concurrentWalks::4            0                       # Number of outstanding walks
system.gpu.shader_mmu.concurrentWalks::5            0                       # Number of outstanding walks
system.gpu.shader_mmu.concurrentWalks::6            0                       # Number of outstanding walks
system.gpu.shader_mmu.concurrentWalks::7            0                       # Number of outstanding walks
system.gpu.shader_mmu.concurrentWalks::8            0                       # Number of outstanding walks
system.gpu.shader_mmu.concurrentWalks::9            0                       # Number of outstanding walks
system.gpu.shader_mmu.concurrentWalks::10            0                       # Number of outstanding walks
system.gpu.shader_mmu.concurrentWalks::11            0                       # Number of outstanding walks
system.gpu.shader_mmu.concurrentWalks::12            0                       # Number of outstanding walks
system.gpu.shader_mmu.concurrentWalks::13            0                       # Number of outstanding walks
system.gpu.shader_mmu.concurrentWalks::14            0                       # Number of outstanding walks
system.gpu.shader_mmu.concurrentWalks::15            0                       # Number of outstanding walks
system.gpu.shader_mmu.concurrentWalks::total            0                       # Number of outstanding walks
system.gpu.shader_mmu.pagewalkLatency::samples            0                       # Latency to complete the pagewalk
system.gpu.shader_mmu.pagewalkLatency::mean          nan                       # Latency to complete the pagewalk
system.gpu.shader_mmu.pagewalkLatency::gmean          nan                       # Latency to complete the pagewalk
system.gpu.shader_mmu.pagewalkLatency::stdev          nan                       # Latency to complete the pagewalk
system.gpu.shader_mmu.pagewalkLatency::0            0                       # Latency to complete the pagewalk
system.gpu.shader_mmu.pagewalkLatency::1            0                       # Latency to complete the pagewalk
system.gpu.shader_mmu.pagewalkLatency::2            0                       # Latency to complete the pagewalk
system.gpu.shader_mmu.pagewalkLatency::3            0                       # Latency to complete the pagewalk
system.gpu.shader_mmu.pagewalkLatency::4            0                       # Latency to complete the pagewalk
system.gpu.shader_mmu.pagewalkLatency::5            0                       # Latency to complete the pagewalk
system.gpu.shader_mmu.pagewalkLatency::6            0                       # Latency to complete the pagewalk
system.gpu.shader_mmu.pagewalkLatency::7            0                       # Latency to complete the pagewalk
system.gpu.shader_mmu.pagewalkLatency::8            0                       # Latency to complete the pagewalk
system.gpu.shader_mmu.pagewalkLatency::9            0                       # Latency to complete the pagewalk
system.gpu.shader_mmu.pagewalkLatency::10            0                       # Latency to complete the pagewalk
system.gpu.shader_mmu.pagewalkLatency::11            0                       # Latency to complete the pagewalk
system.gpu.shader_mmu.pagewalkLatency::12            0                       # Latency to complete the pagewalk
system.gpu.shader_mmu.pagewalkLatency::13            0                       # Latency to complete the pagewalk
system.gpu.shader_mmu.pagewalkLatency::14            0                       # Latency to complete the pagewalk
system.gpu.shader_mmu.pagewalkLatency::15            0                       # Latency to complete the pagewalk
system.gpu.shader_mmu.pagewalkLatency::16            0                       # Latency to complete the pagewalk
system.gpu.shader_mmu.pagewalkLatency::17            0                       # Latency to complete the pagewalk
system.gpu.shader_mmu.pagewalkLatency::18            0                       # Latency to complete the pagewalk
system.gpu.shader_mmu.pagewalkLatency::19            0                       # Latency to complete the pagewalk
system.gpu.shader_mmu.pagewalkLatency::20            0                       # Latency to complete the pagewalk
system.gpu.shader_mmu.pagewalkLatency::21            0                       # Latency to complete the pagewalk
system.gpu.shader_mmu.pagewalkLatency::22            0                       # Latency to complete the pagewalk
system.gpu.shader_mmu.pagewalkLatency::23            0                       # Latency to complete the pagewalk
system.gpu.shader_mmu.pagewalkLatency::24            0                       # Latency to complete the pagewalk
system.gpu.shader_mmu.pagewalkLatency::25            0                       # Latency to complete the pagewalk
system.gpu.shader_mmu.pagewalkLatency::26            0                       # Latency to complete the pagewalk
system.gpu.shader_mmu.pagewalkLatency::27            0                       # Latency to complete the pagewalk
system.gpu.shader_mmu.pagewalkLatency::28            0                       # Latency to complete the pagewalk
system.gpu.shader_mmu.pagewalkLatency::29            0                       # Latency to complete the pagewalk
system.gpu.shader_mmu.pagewalkLatency::30            0                       # Latency to complete the pagewalk
system.gpu.shader_mmu.pagewalkLatency::31            0                       # Latency to complete the pagewalk
system.gpu.shader_mmu.pagewalkLatency::total            0                       # Latency to complete the pagewalk
system.gpu.kernels_started                          0                       # Number of kernels started
system.gpu.kernels_completed                        0                       # Number of kernels completed
system.gpu.ce.device_dtb.hits                       0                       # Number of hits in this TLB
system.gpu.ce.device_dtb.misses                     0                       # Number of misses in this TLB
system.gpu.ce.device_dtb.hitRate                  nan                       # Hit rate for this TLB
system.gpu.ce.host_dtb.hits                         0                       # Number of hits in this TLB
system.gpu.ce.host_dtb.misses                       0                       # Number of misses in this TLB
system.gpu.ce.host_dtb.hitRate                    nan                       # Hit rate for this TLB
system.gpu.shader_cores0.itb.hits                   0                       # Number of hits in this TLB
system.gpu.shader_cores0.itb.misses                 0                       # Number of misses in this TLB
system.gpu.shader_cores0.itb.hitRate              nan                       # Hit rate for this TLB
system.gpu.shader_cores0.local_loads                0                       # Number of loads from local space
system.gpu.shader_cores0.local_stores               0                       # Number of stores to local space
system.gpu.shader_cores0.shared_loads               0                       # Number of loads from shared space
system.gpu.shader_cores0.shared_stores              0                       # Number of stores to shared space
system.gpu.shader_cores0.param_kernel_loads            0                       # Number of loads from kernel parameter space
system.gpu.shader_cores0.param_local_loads            0                       # Number of loads from local parameter space
system.gpu.shader_cores0.param_local_stores            0                       # Number of stores to local parameter space
system.gpu.shader_cores0.const_loads                0                       # Number of loads from constant space
system.gpu.shader_cores0.tex_loads                  0                       # Number of loads from texture space
system.gpu.shader_cores0.global_loads               0                       # Number of loads from global space
system.gpu.shader_cores0.global_stores              0                       # Number of stores to global space
system.gpu.shader_cores0.surf_loads                 0                       # Number of loads from surface space
system.gpu.shader_cores0.generic_loads              0                       # Number of loads from generic spaces (global, shared, local)
system.gpu.shader_cores0.generic_stores             0                       # Number of stores to generic spaces (global, shared, local)
system.gpu.shader_cores0.inst_cache_requests            0                       # Number of instruction cache requests sent
system.gpu.shader_cores0.inst_cache_retries            0                       # Number of instruction cache retries
system.gpu.shader_cores0.inst_counts::0             0                       # Inst counts: 1: ALU, 2: MAD, 3: CTRL, 4: SFU, 5: MEM, 6: TEX, 7: NOP
system.gpu.shader_cores0.inst_counts::1             0                       # Inst counts: 1: ALU, 2: MAD, 3: CTRL, 4: SFU, 5: MEM, 6: TEX, 7: NOP
system.gpu.shader_cores0.inst_counts::2             0                       # Inst counts: 1: ALU, 2: MAD, 3: CTRL, 4: SFU, 5: MEM, 6: TEX, 7: NOP
system.gpu.shader_cores0.inst_counts::3             0                       # Inst counts: 1: ALU, 2: MAD, 3: CTRL, 4: SFU, 5: MEM, 6: TEX, 7: NOP
system.gpu.shader_cores0.inst_counts::4             0                       # Inst counts: 1: ALU, 2: MAD, 3: CTRL, 4: SFU, 5: MEM, 6: TEX, 7: NOP
system.gpu.shader_cores0.inst_counts::5             0                       # Inst counts: 1: ALU, 2: MAD, 3: CTRL, 4: SFU, 5: MEM, 6: TEX, 7: NOP
system.gpu.shader_cores0.inst_counts::6             0                       # Inst counts: 1: ALU, 2: MAD, 3: CTRL, 4: SFU, 5: MEM, 6: TEX, 7: NOP
system.gpu.shader_cores0.inst_counts::7             0                       # Inst counts: 1: ALU, 2: MAD, 3: CTRL, 4: SFU, 5: MEM, 6: TEX, 7: NOP
system.gpu.shader_cores0.activeCycles               0                       # Number of cycles this shader was executing a CTA
system.gpu.shader_cores0.notStalledCycles            0                       # Number of cycles this shader was actually executing at least one instance
system.gpu.shader_cores0.instInstances              0                       # Total instructions executed by all PEs in the core
system.gpu.shader_cores0.instPerCycle             nan                       # Instruction instances per cycle
system.gpu.shader_cores0.kernels_completed            0                       # Number of kernels completed
system.gpu.shader_cores0.lsq.data_tlb.hits            0                       # Number of hits in this TLB
system.gpu.shader_cores0.lsq.data_tlb.misses            0                       # Number of misses in this TLB
system.gpu.shader_cores0.lsq.data_tlb.hitRate          nan                       # Hit rate for this TLB
system.gpu.shader_cores0.lsq.warpInstBufActive::samples            0                       # Histogram of number of active warp inst buffers at a given time
system.gpu.shader_cores0.lsq.warpInstBufActive::mean          nan                       # Histogram of number of active warp inst buffers at a given time
system.gpu.shader_cores0.lsq.warpInstBufActive::gmean          nan                       # Histogram of number of active warp inst buffers at a given time
system.gpu.shader_cores0.lsq.warpInstBufActive::stdev          nan                       # Histogram of number of active warp inst buffers at a given time
system.gpu.shader_cores0.lsq.warpInstBufActive::0            0                       # Histogram of number of active warp inst buffers at a given time
system.gpu.shader_cores0.lsq.warpInstBufActive::1            0                       # Histogram of number of active warp inst buffers at a given time
system.gpu.shader_cores0.lsq.warpInstBufActive::2            0                       # Histogram of number of active warp inst buffers at a given time
system.gpu.shader_cores0.lsq.warpInstBufActive::3            0                       # Histogram of number of active warp inst buffers at a given time
system.gpu.shader_cores0.lsq.warpInstBufActive::4            0                       # Histogram of number of active warp inst buffers at a given time
system.gpu.shader_cores0.lsq.warpInstBufActive::5            0                       # Histogram of number of active warp inst buffers at a given time
system.gpu.shader_cores0.lsq.warpInstBufActive::6            0                       # Histogram of number of active warp inst buffers at a given time
system.gpu.shader_cores0.lsq.warpInstBufActive::7            0                       # Histogram of number of active warp inst buffers at a given time
system.gpu.shader_cores0.lsq.warpInstBufActive::8            0                       # Histogram of number of active warp inst buffers at a given time
system.gpu.shader_cores0.lsq.warpInstBufActive::9            0                       # Histogram of number of active warp inst buffers at a given time
system.gpu.shader_cores0.lsq.warpInstBufActive::10            0                       # Histogram of number of active warp inst buffers at a given time
system.gpu.shader_cores0.lsq.warpInstBufActive::11            0                       # Histogram of number of active warp inst buffers at a given time
system.gpu.shader_cores0.lsq.warpInstBufActive::12            0                       # Histogram of number of active warp inst buffers at a given time
system.gpu.shader_cores0.lsq.warpInstBufActive::13            0                       # Histogram of number of active warp inst buffers at a given time
system.gpu.shader_cores0.lsq.warpInstBufActive::14            0                       # Histogram of number of active warp inst buffers at a given time
system.gpu.shader_cores0.lsq.warpInstBufActive::15            0                       # Histogram of number of active warp inst buffers at a given time
system.gpu.shader_cores0.lsq.warpInstBufActive::16            0                       # Histogram of number of active warp inst buffers at a given time
system.gpu.shader_cores0.lsq.warpInstBufActive::17            0                       # Histogram of number of active warp inst buffers at a given time
system.gpu.shader_cores0.lsq.warpInstBufActive::18            0                       # Histogram of number of active warp inst buffers at a given time
system.gpu.shader_cores0.lsq.warpInstBufActive::19            0                       # Histogram of number of active warp inst buffers at a given time
system.gpu.shader_cores0.lsq.warpInstBufActive::20            0                       # Histogram of number of active warp inst buffers at a given time
system.gpu.shader_cores0.lsq.warpInstBufActive::21            0                       # Histogram of number of active warp inst buffers at a given time
system.gpu.shader_cores0.lsq.warpInstBufActive::22            0                       # Histogram of number of active warp inst buffers at a given time
system.gpu.shader_cores0.lsq.warpInstBufActive::23            0                       # Histogram of number of active warp inst buffers at a given time
system.gpu.shader_cores0.lsq.warpInstBufActive::24            0                       # Histogram of number of active warp inst buffers at a given time
system.gpu.shader_cores0.lsq.warpInstBufActive::25            0                       # Histogram of number of active warp inst buffers at a given time
system.gpu.shader_cores0.lsq.warpInstBufActive::26            0                       # Histogram of number of active warp inst buffers at a given time
system.gpu.shader_cores0.lsq.warpInstBufActive::27            0                       # Histogram of number of active warp inst buffers at a given time
system.gpu.shader_cores0.lsq.warpInstBufActive::28            0                       # Histogram of number of active warp inst buffers at a given time
system.gpu.shader_cores0.lsq.warpInstBufActive::29            0                       # Histogram of number of active warp inst buffers at a given time
system.gpu.shader_cores0.lsq.warpInstBufActive::30            0                       # Histogram of number of active warp inst buffers at a given time
system.gpu.shader_cores0.lsq.warpInstBufActive::31            0                       # Histogram of number of active warp inst buffers at a given time
system.gpu.shader_cores0.lsq.warpInstBufActive::32            0                       # Histogram of number of active warp inst buffers at a given time
system.gpu.shader_cores0.lsq.warpInstBufActive::33            0                       # Histogram of number of active warp inst buffers at a given time
system.gpu.shader_cores0.lsq.warpInstBufActive::34            0                       # Histogram of number of active warp inst buffers at a given time
system.gpu.shader_cores0.lsq.warpInstBufActive::35            0                       # Histogram of number of active warp inst buffers at a given time
system.gpu.shader_cores0.lsq.warpInstBufActive::36            0                       # Histogram of number of active warp inst buffers at a given time
system.gpu.shader_cores0.lsq.warpInstBufActive::37            0                       # Histogram of number of active warp inst buffers at a given time
system.gpu.shader_cores0.lsq.warpInstBufActive::38            0                       # Histogram of number of active warp inst buffers at a given time
system.gpu.shader_cores0.lsq.warpInstBufActive::39            0                       # Histogram of number of active warp inst buffers at a given time
system.gpu.shader_cores0.lsq.warpInstBufActive::40            0                       # Histogram of number of active warp inst buffers at a given time
system.gpu.shader_cores0.lsq.warpInstBufActive::41            0                       # Histogram of number of active warp inst buffers at a given time
system.gpu.shader_cores0.lsq.warpInstBufActive::42            0                       # Histogram of number of active warp inst buffers at a given time
system.gpu.shader_cores0.lsq.warpInstBufActive::43            0                       # Histogram of number of active warp inst buffers at a given time
system.gpu.shader_cores0.lsq.warpInstBufActive::44            0                       # Histogram of number of active warp inst buffers at a given time
system.gpu.shader_cores0.lsq.warpInstBufActive::45            0                       # Histogram of number of active warp inst buffers at a given time
system.gpu.shader_cores0.lsq.warpInstBufActive::46            0                       # Histogram of number of active warp inst buffers at a given time
system.gpu.shader_cores0.lsq.warpInstBufActive::47            0                       # Histogram of number of active warp inst buffers at a given time
system.gpu.shader_cores0.lsq.warpInstBufActive::48            0                       # Histogram of number of active warp inst buffers at a given time
system.gpu.shader_cores0.lsq.warpInstBufActive::49            0                       # Histogram of number of active warp inst buffers at a given time
system.gpu.shader_cores0.lsq.warpInstBufActive::50            0                       # Histogram of number of active warp inst buffers at a given time
system.gpu.shader_cores0.lsq.warpInstBufActive::51            0                       # Histogram of number of active warp inst buffers at a given time
system.gpu.shader_cores0.lsq.warpInstBufActive::52            0                       # Histogram of number of active warp inst buffers at a given time
system.gpu.shader_cores0.lsq.warpInstBufActive::53            0                       # Histogram of number of active warp inst buffers at a given time
system.gpu.shader_cores0.lsq.warpInstBufActive::54            0                       # Histogram of number of active warp inst buffers at a given time
system.gpu.shader_cores0.lsq.warpInstBufActive::55            0                       # Histogram of number of active warp inst buffers at a given time
system.gpu.shader_cores0.lsq.warpInstBufActive::56            0                       # Histogram of number of active warp inst buffers at a given time
system.gpu.shader_cores0.lsq.warpInstBufActive::57            0                       # Histogram of number of active warp inst buffers at a given time
system.gpu.shader_cores0.lsq.warpInstBufActive::58            0                       # Histogram of number of active warp inst buffers at a given time
system.gpu.shader_cores0.lsq.warpInstBufActive::59            0                       # Histogram of number of active warp inst buffers at a given time
system.gpu.shader_cores0.lsq.warpInstBufActive::60            0                       # Histogram of number of active warp inst buffers at a given time
system.gpu.shader_cores0.lsq.warpInstBufActive::61            0                       # Histogram of number of active warp inst buffers at a given time
system.gpu.shader_cores0.lsq.warpInstBufActive::62            0                       # Histogram of number of active warp inst buffers at a given time
system.gpu.shader_cores0.lsq.warpInstBufActive::63            0                       # Histogram of number of active warp inst buffers at a given time
system.gpu.shader_cores0.lsq.warpInstBufActive::64            0                       # Histogram of number of active warp inst buffers at a given time
system.gpu.shader_cores0.lsq.warpInstBufActive::total            0                       # Histogram of number of active warp inst buffers at a given time
system.gpu.shader_cores0.lsq.cacheAccesses            0                       # Average number of concurrent outstanding cache accesses
system.gpu.shader_cores0.lsq.writebackBlockedCycles            0                       # Number of cycles blocked for core writeback stage
system.gpu.shader_cores0.lsq.mshrHitQueued            0                       # Number of hits on blocked lines in MSHRs
system.gpu.shader_cores0.lsq.mshrsFullCycles            0                       # Number of cycles stalled waiting for an MSHR
system.gpu.shader_cores0.lsq.mshrsFullCount            0                       # Number of times MSHRs filled
system.gpu.shader_cores0.lsq.warpCoalescedAccesses::samples            0                       # Number of coalesced accesses per warp instruction
system.gpu.shader_cores0.lsq.warpCoalescedAccesses::mean          nan                       # Number of coalesced accesses per warp instruction
system.gpu.shader_cores0.lsq.warpCoalescedAccesses::gmean          nan                       # Number of coalesced accesses per warp instruction
system.gpu.shader_cores0.lsq.warpCoalescedAccesses::stdev          nan                       # Number of coalesced accesses per warp instruction
system.gpu.shader_cores0.lsq.warpCoalescedAccesses::0            0                       # Number of coalesced accesses per warp instruction
system.gpu.shader_cores0.lsq.warpCoalescedAccesses::1            0                       # Number of coalesced accesses per warp instruction
system.gpu.shader_cores0.lsq.warpCoalescedAccesses::2            0                       # Number of coalesced accesses per warp instruction
system.gpu.shader_cores0.lsq.warpCoalescedAccesses::3            0                       # Number of coalesced accesses per warp instruction
system.gpu.shader_cores0.lsq.warpCoalescedAccesses::4            0                       # Number of coalesced accesses per warp instruction
system.gpu.shader_cores0.lsq.warpCoalescedAccesses::5            0                       # Number of coalesced accesses per warp instruction
system.gpu.shader_cores0.lsq.warpCoalescedAccesses::6            0                       # Number of coalesced accesses per warp instruction
system.gpu.shader_cores0.lsq.warpCoalescedAccesses::7            0                       # Number of coalesced accesses per warp instruction
system.gpu.shader_cores0.lsq.warpCoalescedAccesses::8            0                       # Number of coalesced accesses per warp instruction
system.gpu.shader_cores0.lsq.warpCoalescedAccesses::9            0                       # Number of coalesced accesses per warp instruction
system.gpu.shader_cores0.lsq.warpCoalescedAccesses::10            0                       # Number of coalesced accesses per warp instruction
system.gpu.shader_cores0.lsq.warpCoalescedAccesses::11            0                       # Number of coalesced accesses per warp instruction
system.gpu.shader_cores0.lsq.warpCoalescedAccesses::12            0                       # Number of coalesced accesses per warp instruction
system.gpu.shader_cores0.lsq.warpCoalescedAccesses::13            0                       # Number of coalesced accesses per warp instruction
system.gpu.shader_cores0.lsq.warpCoalescedAccesses::14            0                       # Number of coalesced accesses per warp instruction
system.gpu.shader_cores0.lsq.warpCoalescedAccesses::15            0                       # Number of coalesced accesses per warp instruction
system.gpu.shader_cores0.lsq.warpCoalescedAccesses::16            0                       # Number of coalesced accesses per warp instruction
system.gpu.shader_cores0.lsq.warpCoalescedAccesses::17            0                       # Number of coalesced accesses per warp instruction
system.gpu.shader_cores0.lsq.warpCoalescedAccesses::18            0                       # Number of coalesced accesses per warp instruction
system.gpu.shader_cores0.lsq.warpCoalescedAccesses::19            0                       # Number of coalesced accesses per warp instruction
system.gpu.shader_cores0.lsq.warpCoalescedAccesses::20            0                       # Number of coalesced accesses per warp instruction
system.gpu.shader_cores0.lsq.warpCoalescedAccesses::21            0                       # Number of coalesced accesses per warp instruction
system.gpu.shader_cores0.lsq.warpCoalescedAccesses::22            0                       # Number of coalesced accesses per warp instruction
system.gpu.shader_cores0.lsq.warpCoalescedAccesses::23            0                       # Number of coalesced accesses per warp instruction
system.gpu.shader_cores0.lsq.warpCoalescedAccesses::24            0                       # Number of coalesced accesses per warp instruction
system.gpu.shader_cores0.lsq.warpCoalescedAccesses::25            0                       # Number of coalesced accesses per warp instruction
system.gpu.shader_cores0.lsq.warpCoalescedAccesses::26            0                       # Number of coalesced accesses per warp instruction
system.gpu.shader_cores0.lsq.warpCoalescedAccesses::27            0                       # Number of coalesced accesses per warp instruction
system.gpu.shader_cores0.lsq.warpCoalescedAccesses::28            0                       # Number of coalesced accesses per warp instruction
system.gpu.shader_cores0.lsq.warpCoalescedAccesses::29            0                       # Number of coalesced accesses per warp instruction
system.gpu.shader_cores0.lsq.warpCoalescedAccesses::30            0                       # Number of coalesced accesses per warp instruction
system.gpu.shader_cores0.lsq.warpCoalescedAccesses::31            0                       # Number of coalesced accesses per warp instruction
system.gpu.shader_cores0.lsq.warpCoalescedAccesses::32            0                       # Number of coalesced accesses per warp instruction
system.gpu.shader_cores0.lsq.warpCoalescedAccesses::total            0                       # Number of coalesced accesses per warp instruction
system.gpu.shader_cores0.lsq.warpLatencyRead::samples            0                       # Latency in cycles for whole warp to finish the read
system.gpu.shader_cores0.lsq.warpLatencyRead::mean          nan                       # Latency in cycles for whole warp to finish the read
system.gpu.shader_cores0.lsq.warpLatencyRead::gmean          nan                       # Latency in cycles for whole warp to finish the read
system.gpu.shader_cores0.lsq.warpLatencyRead::stdev          nan                       # Latency in cycles for whole warp to finish the read
system.gpu.shader_cores0.lsq.warpLatencyRead::0            0                       # Latency in cycles for whole warp to finish the read
system.gpu.shader_cores0.lsq.warpLatencyRead::1            0                       # Latency in cycles for whole warp to finish the read
system.gpu.shader_cores0.lsq.warpLatencyRead::2            0                       # Latency in cycles for whole warp to finish the read
system.gpu.shader_cores0.lsq.warpLatencyRead::3            0                       # Latency in cycles for whole warp to finish the read
system.gpu.shader_cores0.lsq.warpLatencyRead::4            0                       # Latency in cycles for whole warp to finish the read
system.gpu.shader_cores0.lsq.warpLatencyRead::5            0                       # Latency in cycles for whole warp to finish the read
system.gpu.shader_cores0.lsq.warpLatencyRead::6            0                       # Latency in cycles for whole warp to finish the read
system.gpu.shader_cores0.lsq.warpLatencyRead::7            0                       # Latency in cycles for whole warp to finish the read
system.gpu.shader_cores0.lsq.warpLatencyRead::8            0                       # Latency in cycles for whole warp to finish the read
system.gpu.shader_cores0.lsq.warpLatencyRead::9            0                       # Latency in cycles for whole warp to finish the read
system.gpu.shader_cores0.lsq.warpLatencyRead::10            0                       # Latency in cycles for whole warp to finish the read
system.gpu.shader_cores0.lsq.warpLatencyRead::11            0                       # Latency in cycles for whole warp to finish the read
system.gpu.shader_cores0.lsq.warpLatencyRead::12            0                       # Latency in cycles for whole warp to finish the read
system.gpu.shader_cores0.lsq.warpLatencyRead::13            0                       # Latency in cycles for whole warp to finish the read
system.gpu.shader_cores0.lsq.warpLatencyRead::14            0                       # Latency in cycles for whole warp to finish the read
system.gpu.shader_cores0.lsq.warpLatencyRead::15            0                       # Latency in cycles for whole warp to finish the read
system.gpu.shader_cores0.lsq.warpLatencyRead::total            0                       # Latency in cycles for whole warp to finish the read
system.gpu.shader_cores0.lsq.warpLatencyWrite::samples            0                       # Latency in cycles for whole warp to finish the write
system.gpu.shader_cores0.lsq.warpLatencyWrite::mean          nan                       # Latency in cycles for whole warp to finish the write
system.gpu.shader_cores0.lsq.warpLatencyWrite::gmean          nan                       # Latency in cycles for whole warp to finish the write
system.gpu.shader_cores0.lsq.warpLatencyWrite::stdev          nan                       # Latency in cycles for whole warp to finish the write
system.gpu.shader_cores0.lsq.warpLatencyWrite::0            0                       # Latency in cycles for whole warp to finish the write
system.gpu.shader_cores0.lsq.warpLatencyWrite::1            0                       # Latency in cycles for whole warp to finish the write
system.gpu.shader_cores0.lsq.warpLatencyWrite::2            0                       # Latency in cycles for whole warp to finish the write
system.gpu.shader_cores0.lsq.warpLatencyWrite::3            0                       # Latency in cycles for whole warp to finish the write
system.gpu.shader_cores0.lsq.warpLatencyWrite::4            0                       # Latency in cycles for whole warp to finish the write
system.gpu.shader_cores0.lsq.warpLatencyWrite::5            0                       # Latency in cycles for whole warp to finish the write
system.gpu.shader_cores0.lsq.warpLatencyWrite::6            0                       # Latency in cycles for whole warp to finish the write
system.gpu.shader_cores0.lsq.warpLatencyWrite::7            0                       # Latency in cycles for whole warp to finish the write
system.gpu.shader_cores0.lsq.warpLatencyWrite::8            0                       # Latency in cycles for whole warp to finish the write
system.gpu.shader_cores0.lsq.warpLatencyWrite::9            0                       # Latency in cycles for whole warp to finish the write
system.gpu.shader_cores0.lsq.warpLatencyWrite::10            0                       # Latency in cycles for whole warp to finish the write
system.gpu.shader_cores0.lsq.warpLatencyWrite::11            0                       # Latency in cycles for whole warp to finish the write
system.gpu.shader_cores0.lsq.warpLatencyWrite::12            0                       # Latency in cycles for whole warp to finish the write
system.gpu.shader_cores0.lsq.warpLatencyWrite::13            0                       # Latency in cycles for whole warp to finish the write
system.gpu.shader_cores0.lsq.warpLatencyWrite::14            0                       # Latency in cycles for whole warp to finish the write
system.gpu.shader_cores0.lsq.warpLatencyWrite::15            0                       # Latency in cycles for whole warp to finish the write
system.gpu.shader_cores0.lsq.warpLatencyWrite::total            0                       # Latency in cycles for whole warp to finish the write
system.gpu.shader_cores0.lsq.warpLatencyFence::samples            0                       # Latency in cycles for whole warp to finish the fence
system.gpu.shader_cores0.lsq.warpLatencyFence::mean          nan                       # Latency in cycles for whole warp to finish the fence
system.gpu.shader_cores0.lsq.warpLatencyFence::gmean          nan                       # Latency in cycles for whole warp to finish the fence
system.gpu.shader_cores0.lsq.warpLatencyFence::stdev          nan                       # Latency in cycles for whole warp to finish the fence
system.gpu.shader_cores0.lsq.warpLatencyFence::0            0                       # Latency in cycles for whole warp to finish the fence
system.gpu.shader_cores0.lsq.warpLatencyFence::1            0                       # Latency in cycles for whole warp to finish the fence
system.gpu.shader_cores0.lsq.warpLatencyFence::2            0                       # Latency in cycles for whole warp to finish the fence
system.gpu.shader_cores0.lsq.warpLatencyFence::3            0                       # Latency in cycles for whole warp to finish the fence
system.gpu.shader_cores0.lsq.warpLatencyFence::4            0                       # Latency in cycles for whole warp to finish the fence
system.gpu.shader_cores0.lsq.warpLatencyFence::5            0                       # Latency in cycles for whole warp to finish the fence
system.gpu.shader_cores0.lsq.warpLatencyFence::6            0                       # Latency in cycles for whole warp to finish the fence
system.gpu.shader_cores0.lsq.warpLatencyFence::7            0                       # Latency in cycles for whole warp to finish the fence
system.gpu.shader_cores0.lsq.warpLatencyFence::8            0                       # Latency in cycles for whole warp to finish the fence
system.gpu.shader_cores0.lsq.warpLatencyFence::9            0                       # Latency in cycles for whole warp to finish the fence
system.gpu.shader_cores0.lsq.warpLatencyFence::10            0                       # Latency in cycles for whole warp to finish the fence
system.gpu.shader_cores0.lsq.warpLatencyFence::11            0                       # Latency in cycles for whole warp to finish the fence
system.gpu.shader_cores0.lsq.warpLatencyFence::12            0                       # Latency in cycles for whole warp to finish the fence
system.gpu.shader_cores0.lsq.warpLatencyFence::13            0                       # Latency in cycles for whole warp to finish the fence
system.gpu.shader_cores0.lsq.warpLatencyFence::14            0                       # Latency in cycles for whole warp to finish the fence
system.gpu.shader_cores0.lsq.warpLatencyFence::15            0                       # Latency in cycles for whole warp to finish the fence
system.gpu.shader_cores0.lsq.warpLatencyFence::total            0                       # Latency in cycles for whole warp to finish the fence
system.gpu.shader_cores0.lsq.warpLatencyAtomic::samples            0                       # Latency in cycles for whole warp to finish the atomic
system.gpu.shader_cores0.lsq.warpLatencyAtomic::mean          nan                       # Latency in cycles for whole warp to finish the atomic
system.gpu.shader_cores0.lsq.warpLatencyAtomic::gmean          nan                       # Latency in cycles for whole warp to finish the atomic
system.gpu.shader_cores0.lsq.warpLatencyAtomic::stdev          nan                       # Latency in cycles for whole warp to finish the atomic
system.gpu.shader_cores0.lsq.warpLatencyAtomic::0            0                       # Latency in cycles for whole warp to finish the atomic
system.gpu.shader_cores0.lsq.warpLatencyAtomic::1            0                       # Latency in cycles for whole warp to finish the atomic
system.gpu.shader_cores0.lsq.warpLatencyAtomic::2            0                       # Latency in cycles for whole warp to finish the atomic
system.gpu.shader_cores0.lsq.warpLatencyAtomic::3            0                       # Latency in cycles for whole warp to finish the atomic
system.gpu.shader_cores0.lsq.warpLatencyAtomic::4            0                       # Latency in cycles for whole warp to finish the atomic
system.gpu.shader_cores0.lsq.warpLatencyAtomic::5            0                       # Latency in cycles for whole warp to finish the atomic
system.gpu.shader_cores0.lsq.warpLatencyAtomic::6            0                       # Latency in cycles for whole warp to finish the atomic
system.gpu.shader_cores0.lsq.warpLatencyAtomic::7            0                       # Latency in cycles for whole warp to finish the atomic
system.gpu.shader_cores0.lsq.warpLatencyAtomic::8            0                       # Latency in cycles for whole warp to finish the atomic
system.gpu.shader_cores0.lsq.warpLatencyAtomic::9            0                       # Latency in cycles for whole warp to finish the atomic
system.gpu.shader_cores0.lsq.warpLatencyAtomic::10            0                       # Latency in cycles for whole warp to finish the atomic
system.gpu.shader_cores0.lsq.warpLatencyAtomic::11            0                       # Latency in cycles for whole warp to finish the atomic
system.gpu.shader_cores0.lsq.warpLatencyAtomic::12            0                       # Latency in cycles for whole warp to finish the atomic
system.gpu.shader_cores0.lsq.warpLatencyAtomic::13            0                       # Latency in cycles for whole warp to finish the atomic
system.gpu.shader_cores0.lsq.warpLatencyAtomic::14            0                       # Latency in cycles for whole warp to finish the atomic
system.gpu.shader_cores0.lsq.warpLatencyAtomic::15            0                       # Latency in cycles for whole warp to finish the atomic
system.gpu.shader_cores0.lsq.warpLatencyAtomic::total            0                       # Latency in cycles for whole warp to finish the atomic
system.gpu.shader_cores0.lsq.tlbMissLatency::samples            0                       # Latency in cycles for TLB miss
system.gpu.shader_cores0.lsq.tlbMissLatency::mean          nan                       # Latency in cycles for TLB miss
system.gpu.shader_cores0.lsq.tlbMissLatency::gmean          nan                       # Latency in cycles for TLB miss
system.gpu.shader_cores0.lsq.tlbMissLatency::stdev          nan                       # Latency in cycles for TLB miss
system.gpu.shader_cores0.lsq.tlbMissLatency::0            0                       # Latency in cycles for TLB miss
system.gpu.shader_cores0.lsq.tlbMissLatency::1            0                       # Latency in cycles for TLB miss
system.gpu.shader_cores0.lsq.tlbMissLatency::2            0                       # Latency in cycles for TLB miss
system.gpu.shader_cores0.lsq.tlbMissLatency::3            0                       # Latency in cycles for TLB miss
system.gpu.shader_cores0.lsq.tlbMissLatency::4            0                       # Latency in cycles for TLB miss
system.gpu.shader_cores0.lsq.tlbMissLatency::5            0                       # Latency in cycles for TLB miss
system.gpu.shader_cores0.lsq.tlbMissLatency::6            0                       # Latency in cycles for TLB miss
system.gpu.shader_cores0.lsq.tlbMissLatency::7            0                       # Latency in cycles for TLB miss
system.gpu.shader_cores0.lsq.tlbMissLatency::8            0                       # Latency in cycles for TLB miss
system.gpu.shader_cores0.lsq.tlbMissLatency::9            0                       # Latency in cycles for TLB miss
system.gpu.shader_cores0.lsq.tlbMissLatency::10            0                       # Latency in cycles for TLB miss
system.gpu.shader_cores0.lsq.tlbMissLatency::11            0                       # Latency in cycles for TLB miss
system.gpu.shader_cores0.lsq.tlbMissLatency::12            0                       # Latency in cycles for TLB miss
system.gpu.shader_cores0.lsq.tlbMissLatency::13            0                       # Latency in cycles for TLB miss
system.gpu.shader_cores0.lsq.tlbMissLatency::14            0                       # Latency in cycles for TLB miss
system.gpu.shader_cores0.lsq.tlbMissLatency::15            0                       # Latency in cycles for TLB miss
system.gpu.shader_cores0.lsq.tlbMissLatency::total            0                       # Latency in cycles for TLB miss
system.gpu.shader_cores1.itb.hits                   0                       # Number of hits in this TLB
system.gpu.shader_cores1.itb.misses                 0                       # Number of misses in this TLB
system.gpu.shader_cores1.itb.hitRate              nan                       # Hit rate for this TLB
system.gpu.shader_cores1.local_loads                0                       # Number of loads from local space
system.gpu.shader_cores1.local_stores               0                       # Number of stores to local space
system.gpu.shader_cores1.shared_loads               0                       # Number of loads from shared space
system.gpu.shader_cores1.shared_stores              0                       # Number of stores to shared space
system.gpu.shader_cores1.param_kernel_loads            0                       # Number of loads from kernel parameter space
system.gpu.shader_cores1.param_local_loads            0                       # Number of loads from local parameter space
system.gpu.shader_cores1.param_local_stores            0                       # Number of stores to local parameter space
system.gpu.shader_cores1.const_loads                0                       # Number of loads from constant space
system.gpu.shader_cores1.tex_loads                  0                       # Number of loads from texture space
system.gpu.shader_cores1.global_loads               0                       # Number of loads from global space
system.gpu.shader_cores1.global_stores              0                       # Number of stores to global space
system.gpu.shader_cores1.surf_loads                 0                       # Number of loads from surface space
system.gpu.shader_cores1.generic_loads              0                       # Number of loads from generic spaces (global, shared, local)
system.gpu.shader_cores1.generic_stores             0                       # Number of stores to generic spaces (global, shared, local)
system.gpu.shader_cores1.inst_cache_requests            0                       # Number of instruction cache requests sent
system.gpu.shader_cores1.inst_cache_retries            0                       # Number of instruction cache retries
system.gpu.shader_cores1.inst_counts::0             0                       # Inst counts: 1: ALU, 2: MAD, 3: CTRL, 4: SFU, 5: MEM, 6: TEX, 7: NOP
system.gpu.shader_cores1.inst_counts::1             0                       # Inst counts: 1: ALU, 2: MAD, 3: CTRL, 4: SFU, 5: MEM, 6: TEX, 7: NOP
system.gpu.shader_cores1.inst_counts::2             0                       # Inst counts: 1: ALU, 2: MAD, 3: CTRL, 4: SFU, 5: MEM, 6: TEX, 7: NOP
system.gpu.shader_cores1.inst_counts::3             0                       # Inst counts: 1: ALU, 2: MAD, 3: CTRL, 4: SFU, 5: MEM, 6: TEX, 7: NOP
system.gpu.shader_cores1.inst_counts::4             0                       # Inst counts: 1: ALU, 2: MAD, 3: CTRL, 4: SFU, 5: MEM, 6: TEX, 7: NOP
system.gpu.shader_cores1.inst_counts::5             0                       # Inst counts: 1: ALU, 2: MAD, 3: CTRL, 4: SFU, 5: MEM, 6: TEX, 7: NOP
system.gpu.shader_cores1.inst_counts::6             0                       # Inst counts: 1: ALU, 2: MAD, 3: CTRL, 4: SFU, 5: MEM, 6: TEX, 7: NOP
system.gpu.shader_cores1.inst_counts::7             0                       # Inst counts: 1: ALU, 2: MAD, 3: CTRL, 4: SFU, 5: MEM, 6: TEX, 7: NOP
system.gpu.shader_cores1.activeCycles               0                       # Number of cycles this shader was executing a CTA
system.gpu.shader_cores1.notStalledCycles            0                       # Number of cycles this shader was actually executing at least one instance
system.gpu.shader_cores1.instInstances              0                       # Total instructions executed by all PEs in the core
system.gpu.shader_cores1.instPerCycle             nan                       # Instruction instances per cycle
system.gpu.shader_cores1.kernels_completed            0                       # Number of kernels completed
system.gpu.shader_cores1.lsq.data_tlb.hits            0                       # Number of hits in this TLB
system.gpu.shader_cores1.lsq.data_tlb.misses            0                       # Number of misses in this TLB
system.gpu.shader_cores1.lsq.data_tlb.hitRate          nan                       # Hit rate for this TLB
system.gpu.shader_cores1.lsq.warpInstBufActive::samples            0                       # Histogram of number of active warp inst buffers at a given time
system.gpu.shader_cores1.lsq.warpInstBufActive::mean          nan                       # Histogram of number of active warp inst buffers at a given time
system.gpu.shader_cores1.lsq.warpInstBufActive::gmean          nan                       # Histogram of number of active warp inst buffers at a given time
system.gpu.shader_cores1.lsq.warpInstBufActive::stdev          nan                       # Histogram of number of active warp inst buffers at a given time
system.gpu.shader_cores1.lsq.warpInstBufActive::0            0                       # Histogram of number of active warp inst buffers at a given time
system.gpu.shader_cores1.lsq.warpInstBufActive::1            0                       # Histogram of number of active warp inst buffers at a given time
system.gpu.shader_cores1.lsq.warpInstBufActive::2            0                       # Histogram of number of active warp inst buffers at a given time
system.gpu.shader_cores1.lsq.warpInstBufActive::3            0                       # Histogram of number of active warp inst buffers at a given time
system.gpu.shader_cores1.lsq.warpInstBufActive::4            0                       # Histogram of number of active warp inst buffers at a given time
system.gpu.shader_cores1.lsq.warpInstBufActive::5            0                       # Histogram of number of active warp inst buffers at a given time
system.gpu.shader_cores1.lsq.warpInstBufActive::6            0                       # Histogram of number of active warp inst buffers at a given time
system.gpu.shader_cores1.lsq.warpInstBufActive::7            0                       # Histogram of number of active warp inst buffers at a given time
system.gpu.shader_cores1.lsq.warpInstBufActive::8            0                       # Histogram of number of active warp inst buffers at a given time
system.gpu.shader_cores1.lsq.warpInstBufActive::9            0                       # Histogram of number of active warp inst buffers at a given time
system.gpu.shader_cores1.lsq.warpInstBufActive::10            0                       # Histogram of number of active warp inst buffers at a given time
system.gpu.shader_cores1.lsq.warpInstBufActive::11            0                       # Histogram of number of active warp inst buffers at a given time
system.gpu.shader_cores1.lsq.warpInstBufActive::12            0                       # Histogram of number of active warp inst buffers at a given time
system.gpu.shader_cores1.lsq.warpInstBufActive::13            0                       # Histogram of number of active warp inst buffers at a given time
system.gpu.shader_cores1.lsq.warpInstBufActive::14            0                       # Histogram of number of active warp inst buffers at a given time
system.gpu.shader_cores1.lsq.warpInstBufActive::15            0                       # Histogram of number of active warp inst buffers at a given time
system.gpu.shader_cores1.lsq.warpInstBufActive::16            0                       # Histogram of number of active warp inst buffers at a given time
system.gpu.shader_cores1.lsq.warpInstBufActive::17            0                       # Histogram of number of active warp inst buffers at a given time
system.gpu.shader_cores1.lsq.warpInstBufActive::18            0                       # Histogram of number of active warp inst buffers at a given time
system.gpu.shader_cores1.lsq.warpInstBufActive::19            0                       # Histogram of number of active warp inst buffers at a given time
system.gpu.shader_cores1.lsq.warpInstBufActive::20            0                       # Histogram of number of active warp inst buffers at a given time
system.gpu.shader_cores1.lsq.warpInstBufActive::21            0                       # Histogram of number of active warp inst buffers at a given time
system.gpu.shader_cores1.lsq.warpInstBufActive::22            0                       # Histogram of number of active warp inst buffers at a given time
system.gpu.shader_cores1.lsq.warpInstBufActive::23            0                       # Histogram of number of active warp inst buffers at a given time
system.gpu.shader_cores1.lsq.warpInstBufActive::24            0                       # Histogram of number of active warp inst buffers at a given time
system.gpu.shader_cores1.lsq.warpInstBufActive::25            0                       # Histogram of number of active warp inst buffers at a given time
system.gpu.shader_cores1.lsq.warpInstBufActive::26            0                       # Histogram of number of active warp inst buffers at a given time
system.gpu.shader_cores1.lsq.warpInstBufActive::27            0                       # Histogram of number of active warp inst buffers at a given time
system.gpu.shader_cores1.lsq.warpInstBufActive::28            0                       # Histogram of number of active warp inst buffers at a given time
system.gpu.shader_cores1.lsq.warpInstBufActive::29            0                       # Histogram of number of active warp inst buffers at a given time
system.gpu.shader_cores1.lsq.warpInstBufActive::30            0                       # Histogram of number of active warp inst buffers at a given time
system.gpu.shader_cores1.lsq.warpInstBufActive::31            0                       # Histogram of number of active warp inst buffers at a given time
system.gpu.shader_cores1.lsq.warpInstBufActive::32            0                       # Histogram of number of active warp inst buffers at a given time
system.gpu.shader_cores1.lsq.warpInstBufActive::33            0                       # Histogram of number of active warp inst buffers at a given time
system.gpu.shader_cores1.lsq.warpInstBufActive::34            0                       # Histogram of number of active warp inst buffers at a given time
system.gpu.shader_cores1.lsq.warpInstBufActive::35            0                       # Histogram of number of active warp inst buffers at a given time
system.gpu.shader_cores1.lsq.warpInstBufActive::36            0                       # Histogram of number of active warp inst buffers at a given time
system.gpu.shader_cores1.lsq.warpInstBufActive::37            0                       # Histogram of number of active warp inst buffers at a given time
system.gpu.shader_cores1.lsq.warpInstBufActive::38            0                       # Histogram of number of active warp inst buffers at a given time
system.gpu.shader_cores1.lsq.warpInstBufActive::39            0                       # Histogram of number of active warp inst buffers at a given time
system.gpu.shader_cores1.lsq.warpInstBufActive::40            0                       # Histogram of number of active warp inst buffers at a given time
system.gpu.shader_cores1.lsq.warpInstBufActive::41            0                       # Histogram of number of active warp inst buffers at a given time
system.gpu.shader_cores1.lsq.warpInstBufActive::42            0                       # Histogram of number of active warp inst buffers at a given time
system.gpu.shader_cores1.lsq.warpInstBufActive::43            0                       # Histogram of number of active warp inst buffers at a given time
system.gpu.shader_cores1.lsq.warpInstBufActive::44            0                       # Histogram of number of active warp inst buffers at a given time
system.gpu.shader_cores1.lsq.warpInstBufActive::45            0                       # Histogram of number of active warp inst buffers at a given time
system.gpu.shader_cores1.lsq.warpInstBufActive::46            0                       # Histogram of number of active warp inst buffers at a given time
system.gpu.shader_cores1.lsq.warpInstBufActive::47            0                       # Histogram of number of active warp inst buffers at a given time
system.gpu.shader_cores1.lsq.warpInstBufActive::48            0                       # Histogram of number of active warp inst buffers at a given time
system.gpu.shader_cores1.lsq.warpInstBufActive::49            0                       # Histogram of number of active warp inst buffers at a given time
system.gpu.shader_cores1.lsq.warpInstBufActive::50            0                       # Histogram of number of active warp inst buffers at a given time
system.gpu.shader_cores1.lsq.warpInstBufActive::51            0                       # Histogram of number of active warp inst buffers at a given time
system.gpu.shader_cores1.lsq.warpInstBufActive::52            0                       # Histogram of number of active warp inst buffers at a given time
system.gpu.shader_cores1.lsq.warpInstBufActive::53            0                       # Histogram of number of active warp inst buffers at a given time
system.gpu.shader_cores1.lsq.warpInstBufActive::54            0                       # Histogram of number of active warp inst buffers at a given time
system.gpu.shader_cores1.lsq.warpInstBufActive::55            0                       # Histogram of number of active warp inst buffers at a given time
system.gpu.shader_cores1.lsq.warpInstBufActive::56            0                       # Histogram of number of active warp inst buffers at a given time
[...]
system.ruby.Directory.miss_latency_hist.issue_to_initial_request::bucket_size            1                      
system.ruby.Directory.miss_latency_hist.issue_to_initial_request::max_bucket            9                      
system.ruby.Directory.miss_latency_hist.issue_to_initial_request::samples          227                      
system.ruby.Directory.miss_latency_hist.issue_to_initial_request::mean            2                      
system.ruby.Directory.miss_latency_hist.issue_to_initial_request::gmean     2.000000                      
system.ruby.Directory.miss_latency_hist.issue_to_initial_request |           0      0.00%      0.00% |           0      0.00%      0.00% |         227    100.00%    100.00% |           0      0.00%    100.00% |           0      0.00%    100.00% |           0      0.00%    100.00% |           0      0.00%    100.00% |           0      0.00%    100.00% |           0      0.00%    100.00% |           0      0.00%    100.00%
system.ruby.Directory.miss_latency_hist.issue_to_initial_request::total          227                      
system.ruby.Directory.miss_latency_hist.initial_to_forward::bucket_size            1                      
system.ruby.Directory.miss_latency_hist.initial_to_forward::max_bucket            9                      
system.ruby.Directory.miss_latency_hist.initial_to_forward::samples          227                      
system.ruby.Directory.miss_latency_hist.initial_to_forward::mean            5                      
system.ruby.Directory.miss_latency_hist.initial_to_forward::gmean     5.000000                      
system.ruby.Directory.miss_latency_hist.initial_to_forward |           0      0.00%      0.00% |           0      0.00%      0.00% |           0      0.00%      0.00% |           0      0.00%      0.00% |           0      0.00%      0.00% |         227    100.00%    100.00% |           0      0.00%    100.00% |           0      0.00%    100.00% |           0      0.00%    100.00% |           0      0.00%    100.00%
system.ruby.Directory.miss_latency_hist.initial_to_forward::total          227                      
system.ruby.Directory.miss_latency_hist.forward_to_first_response::bucket_size            2                      
system.ruby.Directory.miss_latency_hist.forward_to_first_response::max_bucket           19                      
system.ruby.Directory.miss_latency_hist.forward_to_first_response::samples          227                      
system.ruby.Directory.miss_latency_hist.forward_to_first_response::mean           17                      
system.ruby.Directory.miss_latency_hist.forward_to_first_response::gmean    17.000000                      
system.ruby.Directory.miss_latency_hist.forward_to_first_response |           0      0.00%      0.00% |           0      0.00%      0.00% |           0      0.00%      0.00% |           0      0.00%      0.00% |           0      0.00%      0.00% |           0      0.00%      0.00% |           0      0.00%      0.00% |           0      0.00%      0.00% |         227    100.00%    100.00% |           0      0.00%    100.00%
system.ruby.Directory.miss_latency_hist.forward_to_first_response::total          227                      
system.ruby.Directory.miss_latency_hist.first_response_to_completion::bucket_size           32                      
system.ruby.Directory.miss_latency_hist.first_response_to_completion::max_bucket          319                      
system.ruby.Directory.miss_latency_hist.first_response_to_completion::samples          227                      
system.ruby.Directory.miss_latency_hist.first_response_to_completion::mean   122.229075                      
system.ruby.Directory.miss_latency_hist.first_response_to_completion::gmean   122.161902                      
system.ruby.Directory.miss_latency_hist.first_response_to_completion::stdev     4.434423                      
system.ruby.Directory.miss_latency_hist.first_response_to_completion |           0      0.00%      0.00% |           0      0.00%      0.00% |           0      0.00%      0.00% |         222     97.80%     97.80% |           4      1.76%     99.56% |           1      0.44%    100.00% |           0      0.00%    100.00% |           0      0.00%    100.00% |           0      0.00%    100.00% |           0      0.00%    100.00%
system.ruby.Directory.miss_latency_hist.first_response_to_completion::total          227                      
system.ruby.LD.L1Cache.hit_type_mach_latency_hist::bucket_size            1                      
system.ruby.LD.L1Cache.hit_type_mach_latency_hist::max_bucket            9                      
system.ruby.LD.L1Cache.hit_type_mach_latency_hist::samples         1002                      
system.ruby.LD.L1Cache.hit_type_mach_latency_hist::mean            2                      
system.ruby.LD.L1Cache.hit_type_mach_latency_hist::gmean     2.000000                      
system.ruby.LD.L1Cache.hit_type_mach_latency_hist |           0      0.00%      0.00% |           0      0.00%      0.00% |        1002    100.00%    100.00% |           0      0.00%    100.00% |           0      0.00%    100.00% |           0      0.00%    100.00% |           0      0.00%    100.00% |           0      0.00%    100.00% |           0      0.00%    100.00% |           0      0.00%    100.00%
system.ruby.LD.L1Cache.hit_type_mach_latency_hist::total         1002                      
system.ruby.LD.Directory.miss_type_mach_latency_hist::bucket_size           16                      
system.ruby.LD.Directory.miss_type_mach_latency_hist::max_bucket          159                      
system.ruby.LD.Directory.miss_type_mach_latency_hist::samples           43                      
system.ruby.LD.Directory.miss_type_mach_latency_hist::mean   145.930233                      
system.ruby.LD.Directory.miss_type_mach_latency_hist::gmean   145.922533                      
system.ruby.LD.Directory.miss_type_mach_latency_hist::stdev     1.518071                      
system.ruby.LD.Directory.miss_type_mach_latency_hist |           0      0.00%      0.00% |           0      0.00%      0.00% |           0      0.00%      0.00% |           0      0.00%      0.00% |           0      0.00%      0.00% |           0      0.00%      0.00% |           0      0.00%      0.00% |           0      0.00%      0.00% |           0      0.00%      0.00% |          43    100.00%    100.00%
system.ruby.LD.Directory.miss_type_mach_latency_hist::total           43                      
system.ruby.ST.L1Cache.hit_type_mach_latency_hist::bucket_size            1                      
system.ruby.ST.L1Cache.hit_type_mach_latency_hist::max_bucket            9                      
system.ruby.ST.L1Cache.hit_type_mach_latency_hist::samples          890                      
system.ruby.ST.L1Cache.hit_type_mach_latency_hist::mean            2                      
system.ruby.ST.L1Cache.hit_type_mach_latency_hist::gmean     2.000000                      
system.ruby.ST.L1Cache.hit_type_mach_latency_hist |           0      0.00%      0.00% |           0      0.00%      0.00% |         890    100.00%    100.00% |           0      0.00%    100.00% |           0      0.00%    100.00% |           0      0.00%    100.00% |           0      0.00%    100.00% |           0      0.00%    100.00% |           0      0.00%    100.00% |           0      0.00%    100.00%
system.ruby.ST.L1Cache.hit_type_mach_latency_hist::total          890                      
system.ruby.ST.Directory.miss_type_mach_latency_hist::bucket_size           32                      
system.ruby.ST.Directory.miss_type_mach_latency_hist::max_bucket          319                      
system.ruby.ST.Directory.miss_type_mach_latency_hist::samples           45                      
system.ruby.ST.Directory.miss_type_mach_latency_hist::mean   146.111111                      
system.ruby.ST.Directory.miss_type_mach_latency_hist::gmean   146.081948                      
system.ruby.ST.Directory.miss_type_mach_latency_hist::stdev     3.009245                      
system.ruby.ST.Directory.miss_type_mach_latency_hist |           0      0.00%      0.00% |           0      0.00%      0.00% |           0      0.00%      0.00% |           0      0.00%      0.00% |          44     97.78%     97.78% |           1      2.22%    100.00% |           0      0.00%    100.00% |           0      0.00%    100.00% |           0      0.00%    100.00% |           0      0.00%    100.00%
system.ruby.ST.Directory.miss_type_mach_latency_hist::total           45                      
system.ruby.IFETCH.L1Cache.hit_type_mach_latency_hist::bucket_size            1                      
system.ruby.IFETCH.L1Cache.hit_type_mach_latency_hist::max_bucket            9                      
system.ruby.IFETCH.L1Cache.hit_type_mach_latency_hist::samples         6722                      
system.ruby.IFETCH.L1Cache.hit_type_mach_latency_hist::mean            2                      
system.ruby.IFETCH.L1Cache.hit_type_mach_latency_hist::gmean     2.000000                      
system.ruby.IFETCH.L1Cache.hit_type_mach_latency_hist |           0      0.00%      0.00% |           0      0.00%      0.00% |        6722    100.00%    100.00% |           0      0.00%    100.00% |           0      0.00%    100.00% |           0      0.00%    100.00% |           0      0.00%    100.00% |           0      0.00%    100.00% |           0      0.00%    100.00% |           0      0.00%    100.00%
system.ruby.IFETCH.L1Cache.hit_type_mach_latency_hist::total         6722                      
system.ruby.IFETCH.L2Cache.hit_type_mach_latency_hist::bucket_size            2                      
system.ruby.IFETCH.L2Cache.hit_type_mach_latency_hist::max_bucket           19                      
system.ruby.IFETCH.L2Cache.hit_type_mach_latency_hist::samples            3                      
system.ruby.IFETCH.L2Cache.hit_type_mach_latency_hist::mean           18                      
system.ruby.IFETCH.L2Cache.hit_type_mach_latency_hist::gmean    18.000000                      
system.ruby.IFETCH.L2Cache.hit_type_mach_latency_hist |           0      0.00%      0.00% |           0      0.00%      0.00% |           0      0.00%      0.00% |           0      0.00%      0.00% |           0      0.00%      0.00% |           0      0.00%      0.00% |           0      0.00%      0.00% |           0      0.00%      0.00% |           0      0.00%      0.00% |           3    100.00%    100.00%
system.ruby.IFETCH.L2Cache.hit_type_mach_latency_hist::total            3                      
system.ruby.IFETCH.Directory.miss_type_mach_latency_hist::bucket_size           32                      
system.ruby.IFETCH.Directory.miss_type_mach_latency_hist::max_bucket          319                      
system.ruby.IFETCH.Directory.miss_type_mach_latency_hist::samples          139                      
system.ruby.IFETCH.Directory.miss_type_mach_latency_hist::mean   146.359712                      
system.ruby.IFETCH.Directory.miss_type_mach_latency_hist::gmean   146.277603                      
system.ruby.IFETCH.Directory.miss_type_mach_latency_hist::stdev     5.344654                      
system.ruby.IFETCH.Directory.miss_type_mach_latency_hist |           0      0.00%      0.00% |           0      0.00%      0.00% |           0      0.00%      0.00% |           0      0.00%      0.00% |         137     98.56%     98.56% |           1      0.72%     99.28% |           1      0.72%    100.00% |           0      0.00%    100.00% |           0      0.00%    100.00% |           0      0.00%    100.00%
system.ruby.IFETCH.Directory.miss_type_mach_latency_hist::total          139                      
system.ruby.RMW_Read.L1Cache.hit_type_mach_latency_hist::bucket_size            1                      
system.ruby.RMW_Read.L1Cache.hit_type_mach_latency_hist::max_bucket            9                      
system.ruby.RMW_Read.L1Cache.hit_type_mach_latency_hist::samples            8                      
system.ruby.RMW_Read.L1Cache.hit_type_mach_latency_hist::mean            2                      
system.ruby.RMW_Read.L1Cache.hit_type_mach_latency_hist::gmean            2                      
system.ruby.RMW_Read.L1Cache.hit_type_mach_latency_hist |           0      0.00%      0.00% |           0      0.00%      0.00% |           8    100.00%    100.00% |           0      0.00%    100.00% |           0      0.00%    100.00% |           0      0.00%    100.00% |           0      0.00%    100.00% |           0      0.00%    100.00% |           0      0.00%    100.00% |           0      0.00%    100.00%
system.ruby.RMW_Read.L1Cache.hit_type_mach_latency_hist::total            8                      
system.ruby.Directory_Controller.GETX              45      0.00%      0.00%
system.ruby.Directory_Controller.GETS             182      0.00%      0.00%
system.ruby.Directory_Controller.UnblockM          227      0.00%      0.00%
system.ruby.Directory_Controller.Memory_Data          227      0.00%      0.00%
system.ruby.Directory_Controller.E.GETX            45      0.00%      0.00%
system.ruby.Directory_Controller.E.GETS           182      0.00%      0.00%
system.ruby.Directory_Controller.NO_B.UnblockM          227      0.00%      0.00%
system.ruby.Directory_Controller.NO_B_W.Memory_Data          227      0.00%      0.00%
system.ruby.L1Cache_Controller.Load      |        1045    100.00%    100.00% |           0      0.00%    100.00%
system.ruby.L1Cache_Controller.Load::total         1045                      
system.ruby.L1Cache_Controller.Ifetch    |        6864    100.00%    100.00% |           0      0.00%    100.00%
system.ruby.L1Cache_Controller.Ifetch::total         6864                      
system.ruby.L1Cache_Controller.Store     |         943    100.00%    100.00% |           0      0.00%    100.00%
system.ruby.L1Cache_Controller.Store::total          943                      
system.ruby.L1Cache_Controller.L1_to_L2  |          15    100.00%    100.00% |           0      0.00%    100.00%
system.ruby.L1Cache_Controller.L1_to_L2::total           15                      
system.ruby.L1Cache_Controller.Trigger_L2_to_L1I |           3    100.00%    100.00% |           0      0.00%    100.00%
system.ruby.L1Cache_Controller.Trigger_L2_to_L1I::total            3                      
system.ruby.L1Cache_Controller.Complete_L2_to_L1 |           3    100.00%    100.00% |           0      0.00%    100.00%
system.ruby.L1Cache_Controller.Complete_L2_to_L1::total            3                      
system.ruby.L1Cache_Controller.Other_GETX |           0      0.00%      0.00% |          45    100.00%    100.00%
system.ruby.L1Cache_Controller.Other_GETX::total           45                      
system.ruby.L1Cache_Controller.Other_GETS |           0      0.00%      0.00% |         182    100.00%    100.00%
system.ruby.L1Cache_Controller.Other_GETS::total          182                      
system.ruby.L1Cache_Controller.Ack       |         454    100.00%    100.00% |           0      0.00%    100.00%
system.ruby.L1Cache_Controller.Ack::total          454                      
system.ruby.L1Cache_Controller.Exclusive_Data |         227    100.00%    100.00% |           0      0.00%    100.00%
system.ruby.L1Cache_Controller.Exclusive_Data::total          227                      
system.ruby.L1Cache_Controller.All_acks_no_sharers |         227    100.00%    100.00% |           0      0.00%    100.00%
system.ruby.L1Cache_Controller.All_acks_no_sharers::total          227                      
system.ruby.L1Cache_Controller.I.Load    |          43    100.00%    100.00% |           0      0.00%    100.00%
system.ruby.L1Cache_Controller.I.Load::total           43                      
system.ruby.L1Cache_Controller.I.Ifetch  |         139    100.00%    100.00% |           0      0.00%    100.00%
system.ruby.L1Cache_Controller.I.Ifetch::total          139                      
system.ruby.L1Cache_Controller.I.Store   |          45    100.00%    100.00% |           0      0.00%    100.00%
system.ruby.L1Cache_Controller.I.Store::total           45                      
system.ruby.L1Cache_Controller.I.Other_GETX |           0      0.00%      0.00% |          45    100.00%    100.00%
system.ruby.L1Cache_Controller.I.Other_GETX::total           45                      
system.ruby.L1Cache_Controller.I.Other_GETS |           0      0.00%      0.00% |         182    100.00%    100.00%
system.ruby.L1Cache_Controller.I.Other_GETS::total          182                      
system.ruby.L1Cache_Controller.M.Load    |         230    100.00%    100.00% |           0      0.00%    100.00%
system.ruby.L1Cache_Controller.M.Load::total          230                      
system.ruby.L1Cache_Controller.M.Ifetch  |        6722    100.00%    100.00% |           0      0.00%    100.00%
system.ruby.L1Cache_Controller.M.Ifetch::total         6722                      
system.ruby.L1Cache_Controller.M.Store   |          17    100.00%    100.00% |           0      0.00%    100.00%
system.ruby.L1Cache_Controller.M.Store::total           17                      
system.ruby.L1Cache_Controller.M.L1_to_L2 |          15    100.00%    100.00% |           0      0.00%    100.00%
system.ruby.L1Cache_Controller.M.L1_to_L2::total           15                      
system.ruby.L1Cache_Controller.M.Trigger_L2_to_L1I |           3    100.00%    100.00% |           0      0.00%    100.00%
system.ruby.L1Cache_Controller.M.Trigger_L2_to_L1I::total            3                      
system.ruby.L1Cache_Controller.MM.Load   |         772    100.00%    100.00% |           0      0.00%    100.00%
system.ruby.L1Cache_Controller.MM.Load::total          772                      
system.ruby.L1Cache_Controller.MM.Store  |         881    100.00%    100.00% |           0      0.00%    100.00%
system.ruby.L1Cache_Controller.MM.Store::total          881                      
system.ruby.L1Cache_Controller.MR.Ifetch |           3    100.00%    100.00% |           0      0.00%    100.00%
system.ruby.L1Cache_Controller.MR.Ifetch::total            3                      
system.ruby.L1Cache_Controller.IM.Ack    |          90    100.00%    100.00% |           0      0.00%    100.00%
system.ruby.L1Cache_Controller.IM.Ack::total           90                      
system.ruby.L1Cache_Controller.IM.Exclusive_Data |          45    100.00%    100.00% |           0      0.00%    100.00%
system.ruby.L1Cache_Controller.IM.Exclusive_Data::total           45                      
system.ruby.L1Cache_Controller.M_W.All_acks_no_sharers |         182    100.00%    100.00% |           0      0.00%    100.00%
system.ruby.L1Cache_Controller.M_W.All_acks_no_sharers::total          182                      
system.ruby.L1Cache_Controller.MM_W.All_acks_no_sharers |          45    100.00%    100.00% |           0      0.00%    100.00%
system.ruby.L1Cache_Controller.MM_W.All_acks_no_sharers::total           45                      
system.ruby.L1Cache_Controller.IS.Ack    |         364    100.00%    100.00% |           0      0.00%    100.00%
system.ruby.L1Cache_Controller.IS.Ack::total          364                      
system.ruby.L1Cache_Controller.IS.Exclusive_Data |         182    100.00%    100.00% |           0      0.00%    100.00%
system.ruby.L1Cache_Controller.IS.Exclusive_Data::total          182                      
system.ruby.L1Cache_Controller.MT.Complete_L2_to_L1 |           3    100.00%    100.00% |           0      0.00%    100.00%
system.ruby.L1Cache_Controller.MT.Complete_L2_to_L1::total            3                      
system.ruby.GPUL2Cache_Controller.Other_GETX           45      0.00%      0.00%
system.ruby.GPUL2Cache_Controller.Other_GETS          182      0.00%      0.00%
system.ruby.GPUL2Cache_Controller.I.Other_GETX           45      0.00%      0.00%
system.ruby.GPUL2Cache_Controller.I.Other_GETS          182      0.00%      0.00%

---------- End Simulation Statistics   ----------
