
---------- Begin Simulation Statistics ----------
sim_seconds                                  0.008903                       # Number of seconds simulated
sim_ticks                                  8902877500                       # Number of ticks simulated
final_tick                                 8902877500                       # Number of ticks from beginning of simulation (restored from checkpoints and never reset)
sim_freq                                 1000000000000                       # Frequency of simulated ticks
host_inst_rate                                 213137                       # Simulator instruction rate (inst/s)
host_op_rate                                   407217                       # Simulator op (including micro ops) rate (op/s)
host_tick_rate                              383615449                       # Simulator tick rate (ticks/s)
host_mem_usage                                4534260                       # Number of bytes of host memory used
host_seconds                                    23.21                       # Real time elapsed on the host
sim_insts                                     4946444                       # Number of instructions simulated
sim_ops                                       9450604                       # Number of ops (including micro ops) simulated
system.voltage_domain.voltage                       1                       # Voltage in Volts
system.clk_domain.clock                          1000                       # Clock period in ticks
system.mem_ctrls.clk_domain.clock                2500                       # Clock period in ticks
system.dev_mem_ctrls.bytes_read::ruby.dev_dir_cntrl0        87296                       # Number of bytes read from this memory
system.dev_mem_ctrls.bytes_read::total          87296                       # Number of bytes read from this memory
system.dev_mem_ctrls.bytes_written::ruby.dev_dir_cntrl0        63872                       # Number of bytes written to this memory
system.dev_mem_ctrls.bytes_written::total        63872                       # Number of bytes written to this memory
system.dev_mem_ctrls.num_reads::ruby.dev_dir_cntrl0          682                       # Number of read requests responded to by this memory
system.dev_mem_ctrls.num_reads::total             682                       # Number of read requests responded to by this memory
system.dev_mem_ctrls.num_writes::ruby.dev_dir_cntrl0          499                       # Number of write requests responded to by this memory
system.dev_mem_ctrls.num_writes::total            499                       # Number of write requests responded to by this memory
system.dev_mem_ctrls.bw_read::ruby.dev_dir_cntrl0      9805369                       # Total read bandwidth from this memory (bytes/s)
system.dev_mem_ctrls.bw_read::total           9805369                       # Total read bandwidth from this memory (bytes/s)
system.dev_mem_ctrls.bw_write::ruby.dev_dir_cntrl0      7174310                       # Write bandwidth from this memory (bytes/s)
system.dev_mem_ctrls.bw_write::total          7174310                       # Write bandwidth from this memory (bytes/s)
system.dev_mem_ctrls.bw_total::ruby.dev_dir_cntrl0     16979679                       # Total bandwidth to/from this memory (bytes/s)
system.dev_mem_ctrls.bw_total::total         16979679                       # Total bandwidth to/from this memory (bytes/s)
system.dev_mem_ctrls.memReq                      1181                       # Total number of memory requests
system.dev_mem_ctrls.memRead                      682                       # Number of memory reads
system.dev_mem_ctrls.memWrite                     499                       # Number of memory writes
system.dev_mem_ctrls.memRefresh                   302                       # Number of memory refreshes
system.dev_mem_ctrls.memWaitCycles              21450                       # Delay stalled at the head of the bank queue
system.dev_mem_ctrls.memInputQ                   9042                       # Delay in the input queue
system.dev_mem_ctrls.memBankQ                   15290                       # Delay behind the head of the bank queue
system.dev_mem_ctrls.totalStalls                45782                       # Total number of stall cycles
system.dev_mem_ctrls.stallsPerReq           38.765453                       # Expected number of stall cycles per request
system.dev_mem_ctrls.memBankBusy                 3890                       # memory stalls due to busy bank
system.dev_mem_ctrls.memBusBusy                  6396                       # memory stalls due to busy bus
system.dev_mem_ctrls.memReadWriteBusy             622                       # memory stalls due to read write turnaround
system.dev_mem_ctrls.memDataBusBusy              1593                       # memory stalls due to read read turnaround
system.dev_mem_ctrls.memArbWait                  4321                       # memory stalls due to arbitration
system.dev_mem_ctrls.memNotOld                   4628                       # memory stalls due to anti starvation
system.dev_mem_ctrls.memBankCount        |          37      3.13%      3.13% |          38      3.22%      6.35% |          36      3.05%      9.40% |          37      3.13%     12.53% |          36      3.05%     15.58% |          35      2.96%     18.54% |          33      2.79%     21.34% |          30      2.54%     23.88% |          32      2.71%     26.59% |          30      2.54%     29.13% |          36      3.05%     32.18% |          35      2.96%     35.14% |          33      2.79%     37.93% |          33      2.79%     40.73% |          34      2.88%     43.61% |          39      3.30%     46.91% |          39      3.30%     50.21% |          40      3.39%     53.60% |          40      3.39%     56.99% |          40      3.39%     60.37% |          40      3.39%     63.76% |          40      3.39%     67.15% |          40      3.39%     70.53% |          39      3.30%     73.84% |          42      3.56%     77.39% |          42      3.56%     80.95% |          42      3.56%     84.50% |          40      3.39%     87.89% |          36      3.05%     90.94% |          35      2.96%     93.90% |          36      3.05%     96.95% |          36      3.05%    100.00% # Number of accesses per bank
system.dev_mem_ctrls.memBankCount::total         1181                       # Number of accesses per bank
system.mem_ctrls.bytes_read::ruby.dir_cntrl0       217728                       # Number of bytes read from this memory
system.mem_ctrls.bytes_read::total             217728                       # Number of bytes read from this memory
system.mem_ctrls.bytes_written::ruby.dir_cntrl0        52736                       # Number of bytes written to this memory
system.mem_ctrls.bytes_written::total           52736                       # Number of bytes written to this memory
system.mem_ctrls.num_reads::ruby.dir_cntrl0         1701                       # Number of read requests responded to by this memory
system.mem_ctrls.num_reads::total                1701                       # Number of read requests responded to by this memory
system.mem_ctrls.num_writes::ruby.dir_cntrl0          412                       # Number of write requests responded to by this memory
system.mem_ctrls.num_writes::total                412                       # Number of write requests responded to by this memory
system.mem_ctrls.bw_read::ruby.dir_cntrl0     24455913                       # Total read bandwidth from this memory (bytes/s)
system.mem_ctrls.bw_read::total              24455913                       # Total read bandwidth from this memory (bytes/s)
system.mem_ctrls.bw_write::ruby.dir_cntrl0      5923478                       # Write bandwidth from this memory (bytes/s)
system.mem_ctrls.bw_write::total              5923478                       # Write bandwidth from this memory (bytes/s)
system.mem_ctrls.bw_total::ruby.dir_cntrl0     30379391                       # Total bandwidth to/from this memory (bytes/s)
system.mem_ctrls.bw_total::total             30379391                       # Total bandwidth to/from this memory (bytes/s)
system.mem_ctrls.memReq                          2113                       # Total number of memory requests
system.mem_ctrls.memRead                         1701                       # Number of memory reads
system.mem_ctrls.memWrite                         412                       # Number of memory writes
system.mem_ctrls.memRefresh                      9249                       # Number of memory refreshes
system.mem_ctrls.memWaitCycles                   6705                       # Delay stalled at the head of the bank queue
system.mem_ctrls.memInputQ                        157                       # Delay in the input queue
system.mem_ctrls.memBankQ                        1284                       # Delay behind the head of the bank queue
system.mem_ctrls.totalStalls                     8146                       # Total number of stall cycles
system.mem_ctrls.stallsPerReq                3.855182                       # Expected number of stall cycles per request
system.mem_ctrls.memBankBusy                     1657                       # memory stalls due to busy bank
system.mem_ctrls.memBusBusy                      2227                       # memory stalls due to busy bus
system.mem_ctrls.memReadWriteBusy                 356                       # memory stalls due to read write turnaround
system.mem_ctrls.memDataBusBusy                    76                       # memory stalls due to read read turnaround
system.mem_ctrls.memArbWait                      1697                       # memory stalls due to arbitration
system.mem_ctrls.memNotOld                        692                       # memory stalls due to anti starvation
system.mem_ctrls.memBankCount            |          63      2.98%      2.98% |          67      3.17%      6.15% |          60      2.84%      8.99% |          66      3.12%     12.12% |          61      2.89%     15.00% |          60      2.84%     17.84% |          57      2.70%     20.54% |          61      2.89%     23.43% |          62      2.93%     26.36% |          61      2.89%     29.25% |          69      3.27%     32.51% |          61      2.89%     35.40% |          59      2.79%     38.19% |          58      2.74%     40.94% |          63      2.98%     43.92% |          62      2.93%     46.85% |          70      3.31%     50.17% |          70      3.31%     53.48% |          67      3.17%     56.65% |          73      3.45%     60.10% |          61      2.89%     62.99% |          62      2.93%     65.93% |          69      3.27%     69.19% |          75      3.55%     72.74% |          84      3.98%     76.72% |          78      3.69%     80.41% |          76      3.60%     84.00% |          70      3.31%     87.32% |          66      3.12%     90.44% |          66      3.12%     93.56% |          69      3.27%     96.83% |          67      3.17%    100.00% # Number of accesses per bank
system.mem_ctrls.memBankCount::total             2113                       # Number of accesses per bank
system.ruby_clk_domain.clock                      500                       # Clock period in ticks
system.ruby.phys_mem.bytes_read::cpu.inst     53171896                       # Number of bytes read from this memory
system.ruby.phys_mem.bytes_read::cpu.data      7953291                       # Number of bytes read from this memory
system.ruby.phys_mem.bytes_read::gpu.ce         73052                       # Number of bytes read from this memory
system.ruby.phys_mem.bytes_read::gpu.shader_cores0.data        35072                       # Number of bytes read from this memory
system.ruby.phys_mem.bytes_read::gpu.shader_cores0.inst          288                       # Number of bytes read from this memory
system.ruby.phys_mem.bytes_read::gpu.shader_cores1.data        35456                       # Number of bytes read from this memory
system.ruby.phys_mem.bytes_read::gpu.shader_cores1.inst          312                       # Number of bytes read from this memory
system.ruby.phys_mem.bytes_read::gpu.shader_cores2.data        35072                       # Number of bytes read from this memory
system.ruby.phys_mem.bytes_read::gpu.shader_cores2.inst          288                       # Number of bytes read from this memory
system.ruby.phys_mem.bytes_read::gpu.shader_cores3.data        34816                       # Number of bytes read from this memory
system.ruby.phys_mem.bytes_read::gpu.shader_cores3.inst          288                       # Number of bytes read from this memory
system.ruby.phys_mem.bytes_read::total       61339831                       # Number of bytes read from this memory
system.ruby.phys_mem.bytes_inst_read::cpu.inst     53171896                       # Number of instructions bytes read from this memory
system.ruby.phys_mem.bytes_inst_read::gpu.shader_cores0.inst          288                       # Number of instructions bytes read from this memory
system.ruby.phys_mem.bytes_inst_read::gpu.shader_cores1.inst          312                       # Number of instructions bytes read from this memory
system.ruby.phys_mem.bytes_inst_read::gpu.shader_cores2.inst          288                       # Number of instructions bytes read from this memory
system.ruby.phys_mem.bytes_inst_read::gpu.shader_cores3.inst          288                       # Number of instructions bytes read from this memory
system.ruby.phys_mem.bytes_inst_read::total     53173072                       # Number of instructions bytes read from this memory
system.ruby.phys_mem.bytes_written::cpu.data      4954819                       # Number of bytes written to this memory
system.ruby.phys_mem.bytes_written::gpu.ce        73052                       # Number of bytes written to this memory
system.ruby.phys_mem.bytes_written::gpu.shader_cores0.data        12544                       # Number of bytes written to this memory
system.ruby.phys_mem.bytes_written::gpu.shader_cores1.data        12672                       # Number of bytes written to this memory
system.ruby.phys_mem.bytes_written::gpu.shader_cores2.data        12544                       # Number of bytes written to this memory
system.ruby.phys_mem.bytes_written::gpu.shader_cores3.data        12544                       # Number of bytes written to this memory
system.ruby.phys_mem.bytes_written::total      5078175                       # Number of bytes written to this memory
system.ruby.phys_mem.num_reads::cpu.inst      6646487                       # Number of read requests responded to by this memory
system.ruby.phys_mem.num_reads::cpu.data      1295108                       # Number of read requests responded to by this memory
system.ruby.phys_mem.num_reads::gpu.ce            577                       # Number of read requests responded to by this memory
system.ruby.phys_mem.num_reads::gpu.shader_cores0.data          428                       # Number of read requests responded to by this memory
system.ruby.phys_mem.num_reads::gpu.shader_cores0.inst           12                       # Number of read requests responded to by this memory
system.ruby.phys_mem.num_reads::gpu.shader_cores1.data          421                       # Number of read requests responded to by this memory
system.ruby.phys_mem.num_reads::gpu.shader_cores1.inst           13                       # Number of read requests responded to by this memory
system.ruby.phys_mem.num_reads::gpu.shader_cores2.data          428                       # Number of read requests responded to by this memory
system.ruby.phys_mem.num_reads::gpu.shader_cores2.inst           12                       # Number of read requests responded to by this memory
system.ruby.phys_mem.num_reads::gpu.shader_cores3.data          416                       # Number of read requests responded to by this memory
system.ruby.phys_mem.num_reads::gpu.shader_cores3.inst           12                       # Number of read requests responded to by this memory
system.ruby.phys_mem.num_reads::total         7943914                       # Number of read requests responded to by this memory
system.ruby.phys_mem.num_writes::cpu.data       785970                       # Number of write requests responded to by this memory
system.ruby.phys_mem.num_writes::gpu.ce           576                       # Number of write requests responded to by this memory
system.ruby.phys_mem.num_writes::gpu.shader_cores0.data          308                       # Number of write requests responded to by this memory
system.ruby.phys_mem.num_writes::gpu.shader_cores1.data          322                       # Number of write requests responded to by this memory
system.ruby.phys_mem.num_writes::gpu.shader_cores2.data          308                       # Number of write requests responded to by this memory
system.ruby.phys_mem.num_writes::gpu.shader_cores3.data          320                       # Number of write requests responded to by this memory
system.ruby.phys_mem.num_writes::total         787804                       # Number of write requests responded to by this memory
system.ruby.phys_mem.bw_read::cpu.inst     5972439360                       # Total read bandwidth from this memory (bytes/s)
system.ruby.phys_mem.bw_read::cpu.data      893339373                       # Total read bandwidth from this memory (bytes/s)
system.ruby.phys_mem.bw_read::gpu.ce          8205437                       # Total read bandwidth from this memory (bytes/s)
system.ruby.phys_mem.bw_read::gpu.shader_cores0.data      3939400                       # Total read bandwidth from this memory (bytes/s)
system.ruby.phys_mem.bw_read::gpu.shader_cores0.inst        32349                       # Total read bandwidth from this memory (bytes/s)
system.ruby.phys_mem.bw_read::gpu.shader_cores1.data      3982533                       # Total read bandwidth from this memory (bytes/s)
system.ruby.phys_mem.bw_read::gpu.shader_cores1.inst        35045                       # Total read bandwidth from this memory (bytes/s)
system.ruby.phys_mem.bw_read::gpu.shader_cores2.data      3939400                       # Total read bandwidth from this memory (bytes/s)
system.ruby.phys_mem.bw_read::gpu.shader_cores2.inst        32349                       # Total read bandwidth from this memory (bytes/s)
system.ruby.phys_mem.bw_read::gpu.shader_cores3.data      3910646                       # Total read bandwidth from this memory (bytes/s)
system.ruby.phys_mem.bw_read::gpu.shader_cores3.inst        32349                       # Total read bandwidth from this memory (bytes/s)
system.ruby.phys_mem.bw_read::total        6889888241                       # Total read bandwidth from this memory (bytes/s)
system.ruby.phys_mem.bw_inst_read::cpu.inst   5972439360                       # Instruction read bandwidth from this memory (bytes/s)
system.ruby.phys_mem.bw_inst_read::gpu.shader_cores0.inst        32349                       # Instruction read bandwidth from this memory (bytes/s)
system.ruby.phys_mem.bw_inst_read::gpu.shader_cores1.inst        35045                       # Instruction read bandwidth from this memory (bytes/s)
system.ruby.phys_mem.bw_inst_read::gpu.shader_cores2.inst        32349                       # Instruction read bandwidth from this memory (bytes/s)
system.ruby.phys_mem.bw_inst_read::gpu.shader_cores3.inst        32349                       # Instruction read bandwidth from this memory (bytes/s)
system.ruby.phys_mem.bw_inst_read::total   5972571452                       # Instruction read bandwidth from this memory (bytes/s)
system.ruby.phys_mem.bw_write::cpu.data     556541298                       # Write bandwidth from this memory (bytes/s)
system.ruby.phys_mem.bw_write::gpu.ce         8205437                       # Write bandwidth from this memory (bytes/s)
system.ruby.phys_mem.bw_write::gpu.shader_cores0.data      1408983                       # Write bandwidth from this memory (bytes/s)
system.ruby.phys_mem.bw_write::gpu.shader_cores1.data      1423360                       # Write bandwidth from this memory (bytes/s)
system.ruby.phys_mem.bw_write::gpu.shader_cores2.data      1408983                       # Write bandwidth from this memory (bytes/s)
system.ruby.phys_mem.bw_write::gpu.shader_cores3.data      1408983                       # Write bandwidth from this memory (bytes/s)
system.ruby.phys_mem.bw_write::total        570397043                       # Write bandwidth from this memory (bytes/s)
system.ruby.phys_mem.bw_total::cpu.inst    5972439360                       # Total bandwidth to/from this memory (bytes/s)
system.ruby.phys_mem.bw_total::cpu.data    1449880671                       # Total bandwidth to/from this memory (bytes/s)
system.ruby.phys_mem.bw_total::gpu.ce        16410874                       # Total bandwidth to/from this memory (bytes/s)
system.ruby.phys_mem.bw_total::gpu.shader_cores0.data      5348383                       # Total bandwidth to/from this memory (bytes/s)
system.ruby.phys_mem.bw_total::gpu.shader_cores0.inst        32349                       # Total bandwidth to/from this memory (bytes/s)
system.ruby.phys_mem.bw_total::gpu.shader_cores1.data      5405893                       # Total bandwidth to/from this memory (bytes/s)
system.ruby.phys_mem.bw_total::gpu.shader_cores1.inst        35045                       # Total bandwidth to/from this memory (bytes/s)
system.ruby.phys_mem.bw_total::gpu.shader_cores2.data      5348383                       # Total bandwidth to/from this memory (bytes/s)
system.ruby.phys_mem.bw_total::gpu.shader_cores2.inst        32349                       # Total bandwidth to/from this memory (bytes/s)
system.ruby.phys_mem.bw_total::gpu.shader_cores3.data      5319628                       # Total bandwidth to/from this memory (bytes/s)
system.ruby.phys_mem.bw_total::gpu.shader_cores3.inst        32349                       # Total bandwidth to/from this memory (bytes/s)
system.ruby.phys_mem.bw_total::total       7460285284                       # Total bandwidth to/from this memory (bytes/s)
system.cpu_voltage_domain.voltage                   1                       # Voltage in Volts
system.cpu_clk_domain.clock                       500                       # Clock period in ticks
system.cpu.apic_clk_domain.clock                 8000                       # Clock period in ticks
system.cpu.workload.num_syscalls                   44                       # Number of system calls
system.cpu.numCycles                         17805755                       # number of cpu cycles simulated
system.cpu.numWorkItemsStarted                      1                       # number of work items this cpu started
system.cpu.numWorkItemsCompleted                    1                       # number of work items this cpu completed
system.cpu.committedInsts                     4946444                       # Number of instructions committed
system.cpu.committedOps                       9450604                       # Number of ops (including micro ops) committed
system.cpu.num_int_alu_accesses               9303231                       # Number of integer alu accesses
system.cpu.num_fp_alu_accesses                 212669                       # Number of float alu accesses
system.cpu.num_func_calls                      196214                       # number of times a function call or return occured
system.cpu.num_conditional_control_insts       810141                       # number of instructions that are conditional controls
system.cpu.num_int_insts                      9303231                       # number of integer instructions
system.cpu.num_fp_insts                        212669                       # number of float instructions
system.cpu.num_int_register_reads            17826802                       # number of times the integer registers were read
system.cpu.num_int_register_writes            7438182                       # number of times the integer registers were written
system.cpu.num_fp_register_reads               283204                       # number of times the floating registers were read
system.cpu.num_fp_register_writes              145430                       # number of times the floating registers were written
system.cpu.num_cc_register_reads              5491224                       # number of times the CC registers were read
system.cpu.num_cc_register_writes             3235525                       # number of times the CC registers were written
system.cpu.num_mem_refs                       2081078                       # number of memory refs
system.cpu.num_load_insts                     1295108                       # Number of load instructions
system.cpu.num_store_insts                     785970                       # Number of store instructions
system.cpu.num_idle_cycles               82288.503991                       # Number of idle cycles
system.cpu.num_busy_cycles               17723466.496009                       # Number of busy cycles
system.cpu.not_idle_fraction                 0.995379                       # Percentage of non-idle cycles
system.cpu.idle_fraction                     0.004621                       # Percentage of idle cycles
system.cpu.Branches                           1085852                       # Number of branches fetched
system.cpu.op_class::No_OpClass                 34947      0.37%      0.37% # Class of executed instruction
system.cpu.op_class::IntAlu                   7182236     76.00%     76.37% # Class of executed instruction
system.cpu.op_class::IntMult                    20875      0.22%     76.59% # Class of executed instruction
system.cpu.op_class::IntDiv                       370      0.00%     76.59% # Class of executed instruction
system.cpu.op_class::FloatAdd                  131098      1.39%     77.98% # Class of executed instruction
system.cpu.op_class::FloatCmp                       0      0.00%     77.98% # Class of executed instruction
system.cpu.op_class::FloatCvt                       0      0.00%     77.98% # Class of executed instruction
system.cpu.op_class::FloatMult                      0      0.00%     77.98% # Class of executed instruction
system.cpu.op_class::FloatDiv                       0      0.00%     77.98% # Class of executed instruction
system.cpu.op_class::FloatSqrt                      0      0.00%     77.98% # Class of executed instruction
system.cpu.op_class::SimdAdd                        0      0.00%     77.98% # Class of executed instruction
system.cpu.op_class::SimdAddAcc                     0      0.00%     77.98% # Class of executed instruction
system.cpu.op_class::SimdAlu                        0      0.00%     77.98% # Class of executed instruction
system.cpu.op_class::SimdCmp                        0      0.00%     77.98% # Class of executed instruction
system.cpu.op_class::SimdCvt                        0      0.00%     77.98% # Class of executed instruction
system.cpu.op_class::SimdMisc                       0      0.00%     77.98% # Class of executed instruction
system.cpu.op_class::SimdMult                       0      0.00%     77.98% # Class of executed instruction
system.cpu.op_class::SimdMultAcc                    0      0.00%     77.98% # Class of executed instruction
system.cpu.op_class::SimdShift                      0      0.00%     77.98% # Class of executed instruction
system.cpu.op_class::SimdShiftAcc                   0      0.00%     77.98% # Class of executed instruction
system.cpu.op_class::SimdSqrt                       0      0.00%     77.98% # Class of executed instruction
system.cpu.op_class::SimdFloatAdd                   0      0.00%     77.98% # Class of executed instruction
system.cpu.op_class::SimdFloatAlu                   0      0.00%     77.98% # Class of executed instruction
system.cpu.op_class::SimdFloatCmp                   0      0.00%     77.98% # Class of executed instruction
system.cpu.op_class::SimdFloatCvt                   0      0.00%     77.98% # Class of executed instruction
system.cpu.op_class::SimdFloatDiv                   0      0.00%     77.98% # Class of executed instruction
system.cpu.op_class::SimdFloatMisc                  0      0.00%     77.98% # Class of executed instruction
system.cpu.op_class::SimdFloatMult                  0      0.00%     77.98% # Class of executed instruction
system.cpu.op_class::SimdFloatMultAcc               0      0.00%     77.98% # Class of executed instruction
system.cpu.op_class::SimdFloatSqrt                  0      0.00%     77.98% # Class of executed instruction
system.cpu.op_class::MemRead                  1295108     13.70%     91.68% # Class of executed instruction
system.cpu.op_class::MemWrite                  785970      8.32%    100.00% # Class of executed instruction
system.cpu.op_class::IprAccess                      0      0.00%    100.00% # Class of executed instruction
system.cpu.op_class::InstPrefetch                   0      0.00%    100.00% # Class of executed instruction
system.cpu.op_class::total                    9450604                       # Class of executed instruction
system.gpu.clk_domain.voltage_domain.voltage            1                       # Voltage in Volts
system.gpu.clk_domain.clock                      1429                       # Clock period in ticks
system.gpu.dram_wrapper.clk_domain.clock          541                       # Clock period in ticks
system.gpu.icnt_wrapper.clk_domain.clock         2858                       # Clock period in ticks
system.ruby.outstanding_req_hist::bucket_size            8                      
system.ruby.outstanding_req_hist::max_bucket           79                      
system.ruby.outstanding_req_hist::samples      8731718                      
system.ruby.outstanding_req_hist::mean       1.006735                      
system.ruby.outstanding_req_hist::gmean      1.000781                      
system.ruby.outstanding_req_hist::stdev      0.547498                      
system.ruby.outstanding_req_hist         |     8730008     99.98%     99.98% |         398      0.00%     99.98% |         345      0.00%     99.99% |         227      0.00%     99.99% |         129      0.00%     99.99% |          65      0.00%     99.99% |          69      0.00%     99.99% |          79      0.00%    100.00% |         398      0.00%    100.00% |           0      0.00%    100.00%
system.ruby.outstanding_req_hist::total       8731718                      
system.ruby.latency_hist::bucket_size             512                      
system.ruby.latency_hist::max_bucket             5119                      
system.ruby.latency_hist::samples             8731718                      
system.ruby.latency_hist::mean               1.186409                      
system.ruby.latency_hist::gmean              1.003573                      
system.ruby.latency_hist::stdev             15.205855                      
system.ruby.latency_hist                 |     8730786     99.99%     99.99% |         432      0.00%     99.99% |         167      0.00%    100.00% |         186      0.00%    100.00% |         113      0.00%    100.00% |          28      0.00%    100.00% |           6      0.00%    100.00% |           0      0.00%    100.00% |           0      0.00%    100.00% |           0      0.00%    100.00%
system.ruby.latency_hist::total               8731718                      
system.ruby.hit_latency_hist::bucket_size            2                      
system.ruby.hit_latency_hist::max_bucket           19                      
system.ruby.hit_latency_hist::samples         8728495                      
system.ruby.hit_latency_hist::mean           1.006334                      
system.ruby.hit_latency_hist::gmean          1.001520                      
system.ruby.hit_latency_hist::stdev          0.251603                      
system.ruby.hit_latency_hist             |     8722966     99.94%     99.94% |           0      0.00%     99.94% |           0      0.00%     99.94% |           0      0.00%     99.94% |           0      0.00%     99.94% |        5529      0.06%    100.00% |           0      0.00%    100.00% |           0      0.00%    100.00% |           0      0.00%    100.00% |           0      0.00%    100.00%
system.ruby.hit_latency_hist::total           8728495                      
system.ruby.miss_latency_hist::bucket_size          512                      
system.ruby.miss_latency_hist::max_bucket         5119                      
system.ruby.miss_latency_hist::samples           3223                      
system.ruby.miss_latency_hist::mean        488.861930                      
system.ruby.miss_latency_hist::gmean       256.779554                      
system.ruby.miss_latency_hist::stdev       623.255368                      
system.ruby.miss_latency_hist            |        2291     71.08%     71.08% |         432     13.40%     84.49% |         167      5.18%     89.67% |         186      5.77%     95.44% |         113      3.51%     98.95% |          28      0.87%     99.81% |           6      0.19%    100.00% |           0      0.00%    100.00% |           0      0.00%    100.00% |           0      0.00%    100.00%
system.ruby.miss_latency_hist::total             3223                      
system.ruby.L1Cache.incomplete_times               31                      
system.gpu.shader_mmu.numPagefaults                 0                       # Number of Pagefaults
system.gpu.shader_mmu.numPagewalks                168                       # Number of Pagewalks
system.gpu.shader_mmu.totalRequests               168                       # Total number of requests
system.gpu.shader_mmu.retryFailures                 0                       # Times the retry walk after a pagefault failed
system.gpu.shader_mmu.l2hits                        0                       # Hits in the shared L2
system.gpu.shader_mmu.prefetchHits                  0                       # Number of prefetch hits
system.gpu.shader_mmu.numPrefetches                 0                       # Number of prefetchs
system.gpu.shader_mmu.prefetchFaults                0                       # Number of faults caused by prefetches
system.gpu.shader_mmu.pagefaultLatency::samples            0                       # Latency to complete the pagefault
system.gpu.shader_mmu.pagefaultLatency::mean          nan                       # Latency to complete the pagefault
system.gpu.shader_mmu.pagefaultLatency::gmean          nan                       # Latency to complete the pagefault
system.gpu.shader_mmu.pagefaultLatency::stdev          nan                       # Latency to complete the pagefault
system.gpu.shader_mmu.pagefaultLatency::0            0                       # Latency to complete the pagefault
system.gpu.shader_mmu.pagefaultLatency::1            0                       # Latency to complete the pagefault
system.gpu.shader_mmu.pagefaultLatency::2            0                       # Latency to complete the pagefault
system.gpu.shader_mmu.pagefaultLatency::3            0                       # Latency to complete the pagefault
system.gpu.shader_mmu.pagefaultLatency::4            0                       # Latency to complete the pagefault
system.gpu.shader_mmu.pagefaultLatency::5            0                       # Latency to complete the pagefault
system.gpu.shader_mmu.pagefaultLatency::6            0                       # Latency to complete the pagefault
system.gpu.shader_mmu.pagefaultLatency::7            0                       # Latency to complete the pagefault
system.gpu.shader_mmu.pagefaultLatency::8            0                       # Latency to complete the pagefault
system.gpu.shader_mmu.pagefaultLatency::9            0                       # Latency to complete the pagefault
system.gpu.shader_mmu.pagefaultLatency::10            0                       # Latency to complete the pagefault
system.gpu.shader_mmu.pagefaultLatency::11            0                       # Latency to complete the pagefault
system.gpu.shader_mmu.pagefaultLatency::12            0                       # Latency to complete the pagefault
system.gpu.shader_mmu.pagefaultLatency::13            0                       # Latency to complete the pagefault
system.gpu.shader_mmu.pagefaultLatency::14            0                       # Latency to complete the pagefault
system.gpu.shader_mmu.pagefaultLatency::15            0                       # Latency to complete the pagefault
system.gpu.shader_mmu.pagefaultLatency::16            0                       # Latency to complete the pagefault
system.gpu.shader_mmu.pagefaultLatency::17            0                       # Latency to complete the pagefault
system.gpu.shader_mmu.pagefaultLatency::18            0                       # Latency to complete the pagefault
system.gpu.shader_mmu.pagefaultLatency::19            0                       # Latency to complete the pagefault
system.gpu.shader_mmu.pagefaultLatency::20            0                       # Latency to complete the pagefault
system.gpu.shader_mmu.pagefaultLatency::21            0                       # Latency to complete the pagefault
system.gpu.shader_mmu.pagefaultLatency::22            0                       # Latency to complete the pagefault
system.gpu.shader_mmu.pagefaultLatency::23            0                       # Latency to complete the pagefault
system.gpu.shader_mmu.pagefaultLatency::24            0                       # Latency to complete the pagefault
system.gpu.shader_mmu.pagefaultLatency::25            0                       # Latency to complete the pagefault
system.gpu.shader_mmu.pagefaultLatency::26            0                       # Latency to complete the pagefault
system.gpu.shader_mmu.pagefaultLatency::27            0                       # Latency to complete the pagefault
system.gpu.shader_mmu.pagefaultLatency::28            0                       # Latency to complete the pagefault
system.gpu.shader_mmu.pagefaultLatency::29            0                       # Latency to complete the pagefault
system.gpu.shader_mmu.pagefaultLatency::30            0                       # Latency to complete the pagefault
system.gpu.shader_mmu.pagefaultLatency::31            0                       # Latency to complete the pagefault
system.gpu.shader_mmu.pagefaultLatency::total            0                       # Latency to complete the pagefault
system.gpu.shader_mmu.concurrentWalks::samples          168                       # Number of outstanding walks
system.gpu.shader_mmu.concurrentWalks::mean            0                       # Number of outstanding walks
system.gpu.shader_mmu.concurrentWalks::gmean            0                       # Number of outstanding walks
system.gpu.shader_mmu.concurrentWalks::stdev            0                       # Number of outstanding walks
system.gpu.shader_mmu.concurrentWalks::0          168    100.00%    100.00% # Number of outstanding walks
system.gpu.shader_mmu.concurrentWalks::1            0      0.00%    100.00% # Number of outstanding walks
system.gpu.shader_mmu.concurrentWalks::2            0      0.00%    100.00% # Number of outstanding walks
system.gpu.shader_mmu.concurrentWalks::3            0      0.00%    100.00% # Number of outstanding walks
system.gpu.shader_mmu.concurrentWalks::4            0      0.00%    100.00% # Number of outstanding walks
system.gpu.shader_mmu.concurrentWalks::5            0      0.00%    100.00% # Number of outstanding walks
system.gpu.shader_mmu.concurrentWalks::6            0      0.00%    100.00% # Number of outstanding walks
system.gpu.shader_mmu.concurrentWalks::7            0      0.00%    100.00% # Number of outstanding walks
system.gpu.shader_mmu.concurrentWalks::8            0      0.00%    100.00% # Number of outstanding walks
system.gpu.shader_mmu.concurrentWalks::9            0      0.00%    100.00% # Number of outstanding walks
system.gpu.shader_mmu.concurrentWalks::10            0      0.00%    100.00% # Number of outstanding walks
system.gpu.shader_mmu.concurrentWalks::11            0      0.00%    100.00% # Number of outstanding walks
system.gpu.shader_mmu.concurrentWalks::12            0      0.00%    100.00% # Number of outstanding walks
system.gpu.shader_mmu.concurrentWalks::13            0      0.00%    100.00% # Number of outstanding walks
system.gpu.shader_mmu.concurrentWalks::14            0      0.00%    100.00% # Number of outstanding walks
system.gpu.shader_mmu.concurrentWalks::15            0      0.00%    100.00% # Number of outstanding walks
system.gpu.shader_mmu.concurrentWalks::total          168                       # Number of outstanding walks
system.gpu.shader_mmu.pagewalkLatency::samples          168                       # Latency to complete the pagewalk
system.gpu.shader_mmu.pagewalkLatency::mean            0                       # Latency to complete the pagewalk
system.gpu.shader_mmu.pagewalkLatency::gmean            0                       # Latency to complete the pagewalk
system.gpu.shader_mmu.pagewalkLatency::stdev            0                       # Latency to complete the pagewalk
system.gpu.shader_mmu.pagewalkLatency::0          168    100.00%    100.00% # Latency to complete the pagewalk
system.gpu.shader_mmu.pagewalkLatency::1            0      0.00%    100.00% # Latency to complete the pagewalk
system.gpu.shader_mmu.pagewalkLatency::2            0      0.00%    100.00% # Latency to complete the pagewalk
system.gpu.shader_mmu.pagewalkLatency::3            0      0.00%    100.00% # Latency to complete the pagewalk
system.gpu.shader_mmu.pagewalkLatency::4            0      0.00%    100.00% # Latency to complete the pagewalk
system.gpu.shader_mmu.pagewalkLatency::5            0      0.00%    100.00% # Latency to complete the pagewalk
system.gpu.shader_mmu.pagewalkLatency::6            0      0.00%    100.00% # Latency to complete the pagewalk
system.gpu.shader_mmu.pagewalkLatency::7            0      0.00%    100.00% # Latency to complete the pagewalk
system.gpu.shader_mmu.pagewalkLatency::8            0      0.00%    100.00% # Latency to complete the pagewalk
system.gpu.shader_mmu.pagewalkLatency::9            0      0.00%    100.00% # Latency to complete the pagewalk
system.gpu.shader_mmu.pagewalkLatency::10            0      0.00%    100.00% # Latency to complete the pagewalk
system.gpu.shader_mmu.pagewalkLatency::11            0      0.00%    100.00% # Latency to complete the pagewalk
system.gpu.shader_mmu.pagewalkLatency::12            0      0.00%    100.00% # Latency to complete the pagewalk
system.gpu.shader_mmu.pagewalkLatency::13            0      0.00%    100.00% # Latency to complete the pagewalk
system.gpu.shader_mmu.pagewalkLatency::14            0      0.00%    100.00% # Latency to complete the pagewalk
system.gpu.shader_mmu.pagewalkLatency::15            0      0.00%    100.00% # Latency to complete the pagewalk
system.gpu.shader_mmu.pagewalkLatency::16            0      0.00%    100.00% # Latency to complete the pagewalk
system.gpu.shader_mmu.pagewalkLatency::17            0      0.00%    100.00% # Latency to complete the pagewalk
system.gpu.shader_mmu.pagewalkLatency::18            0      0.00%    100.00% # Latency to complete the pagewalk
system.gpu.shader_mmu.pagewalkLatency::19            0      0.00%    100.00% # Latency to complete the pagewalk
system.gpu.shader_mmu.pagewalkLatency::20            0      0.00%    100.00% # Latency to complete the pagewalk
system.gpu.shader_mmu.pagewalkLatency::21            0      0.00%    100.00% # Latency to complete the pagewalk
system.gpu.shader_mmu.pagewalkLatency::22            0      0.00%    100.00% # Latency to complete the pagewalk
system.gpu.shader_mmu.pagewalkLatency::23            0      0.00%    100.00% # Latency to complete the pagewalk
system.gpu.shader_mmu.pagewalkLatency::24            0      0.00%    100.00% # Latency to complete the pagewalk
system.gpu.shader_mmu.pagewalkLatency::25            0      0.00%    100.00% # Latency to complete the pagewalk
system.gpu.shader_mmu.pagewalkLatency::26            0      0.00%    100.00% # Latency to complete the pagewalk
system.gpu.shader_mmu.pagewalkLatency::27            0      0.00%    100.00% # Latency to complete the pagewalk
system.gpu.shader_mmu.pagewalkLatency::28            0      0.00%    100.00% # Latency to complete the pagewalk
system.gpu.shader_mmu.pagewalkLatency::29            0      0.00%    100.00% # Latency to complete the pagewalk
system.gpu.shader_mmu.pagewalkLatency::30            0      0.00%    100.00% # Latency to complete the pagewalk
system.gpu.shader_mmu.pagewalkLatency::31            0      0.00%    100.00% # Latency to complete the pagewalk
system.gpu.shader_mmu.pagewalkLatency::total          168                       # Latency to complete the pagewalk
system.gpu.kernels_started                          2                       # Number of kernels started
system.gpu.kernels_completed                        2                       # Number of kernels completed
system.gpu.ce.device_dtb.hits                       0                       # Number of hits in this TLB
system.gpu.ce.device_dtb.misses                     0                       # Number of misses in this TLB
system.gpu.ce.device_dtb.hitRate                  nan                       # Hit rate for this TLB
system.gpu.ce.host_dtb.hits                       410                       # Number of hits in this TLB
system.gpu.ce.host_dtb.misses                     168                       # Number of misses in this TLB
system.gpu.ce.host_dtb.hitRate               0.709343                       # Hit rate for this TLB
system.gpu.shader_cores0.itb.hits                   0                       # Number of hits in this TLB
system.gpu.shader_cores0.itb.misses                 0                       # Number of misses in this TLB
system.gpu.shader_cores0.itb.hitRate              nan                       # Hit rate for this TLB
system.gpu.shader_cores0.local_loads                0                       # Number of loads from local space
system.gpu.shader_cores0.local_stores               0                       # Number of stores to local space
system.gpu.shader_cores0.shared_loads            5056                       # Number of loads from shared space
system.gpu.shader_cores0.shared_stores           3072                       # Number of stores to shared space
system.gpu.shader_cores0.param_kernel_loads         7296                       # Number of loads from kernel parameter space
system.gpu.shader_cores0.param_local_loads            0                       # Number of loads from local parameter space
system.gpu.shader_cores0.param_local_stores            0                       # Number of stores to local parameter space
system.gpu.shader_cores0.const_loads                0                       # Number of loads from constant space
system.gpu.shader_cores0.tex_loads                  0                       # Number of loads from texture space
system.gpu.shader_cores0.global_loads            8256                       # Number of loads from global space
system.gpu.shader_cores0.global_stores           3136                       # Number of stores to global space
system.gpu.shader_cores0.surf_loads                 0                       # Number of loads from surface space
system.gpu.shader_cores0.generic_loads              0                       # Number of loads from generic spaces (global, shared, local)
system.gpu.shader_cores0.generic_stores             0                       # Number of stores to generic spaces (global, shared, local)
system.gpu.shader_cores0.inst_cache_requests           12                       # Number of instruction cache requests sent
system.gpu.shader_cores0.inst_cache_retries            0                       # Number of instruction cache retries
system.gpu.shader_cores0.inst_counts::0             0                       # Inst counts: 1: ALU, 2: MAD, 3: CTRL, 4: SFU, 5: MEM, 6: TEX, 7: NOP
system.gpu.shader_cores0.inst_counts::1        130176                       # Inst counts: 1: ALU, 2: MAD, 3: CTRL, 4: SFU, 5: MEM, 6: TEX, 7: NOP
system.gpu.shader_cores0.inst_counts::2          2048                       # Inst counts: 1: ALU, 2: MAD, 3: CTRL, 4: SFU, 5: MEM, 6: TEX, 7: NOP
system.gpu.shader_cores0.inst_counts::3         20416                       # Inst counts: 1: ALU, 2: MAD, 3: CTRL, 4: SFU, 5: MEM, 6: TEX, 7: NOP
system.gpu.shader_cores0.inst_counts::4          6144                       # Inst counts: 1: ALU, 2: MAD, 3: CTRL, 4: SFU, 5: MEM, 6: TEX, 7: NOP
system.gpu.shader_cores0.inst_counts::5         26816                       # Inst counts: 1: ALU, 2: MAD, 3: CTRL, 4: SFU, 5: MEM, 6: TEX, 7: NOP
system.gpu.shader_cores0.inst_counts::6             0                       # Inst counts: 1: ALU, 2: MAD, 3: CTRL, 4: SFU, 5: MEM, 6: TEX, 7: NOP
system.gpu.shader_cores0.inst_counts::7             0                       # Inst counts: 1: ALU, 2: MAD, 3: CTRL, 4: SFU, 5: MEM, 6: TEX, 7: NOP
system.gpu.shader_cores0.activeCycles            6372                       # Number of cycles this shader was executing a CTA
system.gpu.shader_cores0.notStalledCycles         4666                       # Number of cycles this shader was actually executing at least one instance
system.gpu.shader_cores0.instInstances         185600                       # Total instructions executed by all PEs in the core
system.gpu.shader_cores0.instPerCycle       29.127433                       # Instruction instances per cycle
system.gpu.shader_cores0.kernels_completed            2                       # Number of kernels completed
system.gpu.shader_cores0.lsq.data_tlb.hits            0                       # Number of hits in this TLB
system.gpu.shader_cores0.lsq.data_tlb.misses            0                       # Number of misses in this TLB
system.gpu.shader_cores0.lsq.data_tlb.hitRate          nan                       # Hit rate for this TLB
system.gpu.shader_cores0.lsq.warpInstBufActive::samples      7869503                       # Histogram of number of active warp inst buffers at a given time
system.gpu.shader_cores0.lsq.warpInstBufActive::mean     7.216089                       # Histogram of number of active warp inst buffers at a given time
system.gpu.shader_cores0.lsq.warpInstBufActive::gmean          nan                       # Histogram of number of active warp inst buffers at a given time
system.gpu.shader_cores0.lsq.warpInstBufActive::stdev    10.119738                       # Histogram of number of active warp inst buffers at a given time
system.gpu.shader_cores0.lsq.warpInstBufActive::0      2806556     35.66%     35.66% # Histogram of number of active warp inst buffers at a given time
system.gpu.shader_cores0.lsq.warpInstBufActive::1       997442     12.67%     48.34% # Histogram of number of active warp inst buffers at a given time
system.gpu.shader_cores0.lsq.warpInstBufActive::2       505866      6.43%     54.77% # Histogram of number of active warp inst buffers at a given time
system.gpu.shader_cores0.lsq.warpInstBufActive::3       265794      3.38%     58.14% # Histogram of number of active warp inst buffers at a given time
system.gpu.shader_cores0.lsq.warpInstBufActive::4       215779      2.74%     60.89% # Histogram of number of active warp inst buffers at a given time
system.gpu.shader_cores0.lsq.warpInstBufActive::5       147187      1.87%     62.76% # Histogram of number of active warp inst buffers at a given time
system.gpu.shader_cores0.lsq.warpInstBufActive::6       118607      1.51%     64.26% # Histogram of number of active warp inst buffers at a given time
system.gpu.shader_cores0.lsq.warpInstBufActive::7       240072      3.05%     67.31% # Histogram of number of active warp inst buffers at a given time
system.gpu.shader_cores0.lsq.warpInstBufActive::8       240072      3.05%     70.36% # Histogram of number of active warp inst buffers at a given time
system.gpu.shader_cores0.lsq.warpInstBufActive::9       202918      2.58%     72.94% # Histogram of number of active warp inst buffers at a given time
system.gpu.shader_cores0.lsq.warpInstBufActive::10       151474      1.92%     74.87% # Histogram of number of active warp inst buffers at a given time
system.gpu.shader_cores0.lsq.warpInstBufActive::11       102888      1.31%     76.18% # Histogram of number of active warp inst buffers at a given time
system.gpu.shader_cores0.lsq.warpInstBufActive::12       171480      2.18%     78.35% # Histogram of number of active warp inst buffers at a given time
system.gpu.shader_cores0.lsq.warpInstBufActive::13       120036      1.53%     79.88% # Histogram of number of active warp inst buffers at a given time
system.gpu.shader_cores0.lsq.warpInstBufActive::14       100030      1.27%     81.15% # Histogram of number of active warp inst buffers at a given time
system.gpu.shader_cores0.lsq.warpInstBufActive::15        98601      1.25%     82.40% # Histogram of number of active warp inst buffers at a given time
system.gpu.shader_cores0.lsq.warpInstBufActive::16        70021      0.89%     83.29% # Histogram of number of active warp inst buffers at a given time
system.gpu.shader_cores0.lsq.warpInstBufActive::17        57160      0.73%     84.02% # Histogram of number of active warp inst buffers at a given time
system.gpu.shader_cores0.lsq.warpInstBufActive::18        87169      1.11%     85.13% # Histogram of number of active warp inst buffers at a given time
system.gpu.shader_cores0.lsq.warpInstBufActive::19        88598      1.13%     86.25% # Histogram of number of active warp inst buffers at a given time
system.gpu.shader_cores0.lsq.warpInstBufActive::20        75737      0.96%     87.22% # Histogram of number of active warp inst buffers at a given time
system.gpu.shader_cores0.lsq.warpInstBufActive::21        28580      0.36%     87.58% # Histogram of number of active warp inst buffers at a given time
system.gpu.shader_cores0.lsq.warpInstBufActive::22        11432      0.15%     87.72% # Histogram of number of active warp inst buffers at a given time
system.gpu.shader_cores0.lsq.warpInstBufActive::23         7145      0.09%     87.82% # Histogram of number of active warp inst buffers at a given time
system.gpu.shader_cores0.lsq.warpInstBufActive::24         8574      0.11%     87.92% # Histogram of number of active warp inst buffers at a given time
system.gpu.shader_cores0.lsq.warpInstBufActive::25        10003      0.13%     88.05% # Histogram of number of active warp inst buffers at a given time
system.gpu.shader_cores0.lsq.warpInstBufActive::26        22864      0.29%     88.34% # Histogram of number of active warp inst buffers at a given time
system.gpu.shader_cores0.lsq.warpInstBufActive::27        44299      0.56%     88.91% # Histogram of number of active warp inst buffers at a given time
system.gpu.shader_cores0.lsq.warpInstBufActive::28        68592      0.87%     89.78% # Histogram of number of active warp inst buffers at a given time
system.gpu.shader_cores0.lsq.warpInstBufActive::29        98601      1.25%     91.03% # Histogram of number of active warp inst buffers at a given time
system.gpu.shader_cores0.lsq.warpInstBufActive::30       154332      1.96%     92.99% # Histogram of number of active warp inst buffers at a given time
system.gpu.shader_cores0.lsq.warpInstBufActive::31        84311      1.07%     94.06% # Histogram of number of active warp inst buffers at a given time
system.gpu.shader_cores0.lsq.warpInstBufActive::32       467283      5.94%    100.00% # Histogram of number of active warp inst buffers at a given time
system.gpu.shader_cores0.lsq.warpInstBufActive::33            0      0.00%    100.00% # Histogram of number of active warp inst buffers at a given time
system.gpu.shader_cores0.lsq.warpInstBufActive::34            0      0.00%    100.00% # Histogram of number of active warp inst buffers at a given time
system.gpu.shader_cores0.lsq.warpInstBufActive::35            0      0.00%    100.00% # Histogram of number of active warp inst buffers at a given time
system.gpu.shader_cores0.lsq.warpInstBufActive::36            0      0.00%    100.00% # Histogram of number of active warp inst buffers at a given time
system.gpu.shader_cores0.lsq.warpInstBufActive::37            0      0.00%    100.00% # Histogram of number of active warp inst buffers at a given time
system.gpu.shader_cores0.lsq.warpInstBufActive::38            0      0.00%    100.00% # Histogram of number of active warp inst buffers at a given time
system.gpu.shader_cores0.lsq.warpInstBufActive::39            0      0.00%    100.00% # Histogram of number of active warp inst buffers at a given time
system.gpu.shader_cores0.lsq.warpInstBufActive::40            0      0.00%    100.00% # Histogram of number of active warp inst buffers at a given time
system.gpu.shader_cores0.lsq.warpInstBufActive::41            0      0.00%    100.00% # Histogram of number of active warp inst buffers at a given time
system.gpu.shader_cores0.lsq.warpInstBufActive::42            0      0.00%    100.00% # Histogram of number of active warp inst buffers at a given time
system.gpu.shader_cores0.lsq.warpInstBufActive::43            0      0.00%    100.00% # Histogram of number of active warp inst buffers at a given time
system.gpu.shader_cores0.lsq.warpInstBufActive::44            0      0.00%    100.00% # Histogram of number of active warp inst buffers at a given time
system.gpu.shader_cores0.lsq.warpInstBufActive::45            0      0.00%    100.00% # Histogram of number of active warp inst buffers at a given time
system.gpu.shader_cores0.lsq.warpInstBufActive::46            0      0.00%    100.00% # Histogram of number of active warp inst buffers at a given time
system.gpu.shader_cores0.lsq.warpInstBufActive::47            0      0.00%    100.00% # Histogram of number of active warp inst buffers at a given time
system.gpu.shader_cores0.lsq.warpInstBufActive::48            0      0.00%    100.00% # Histogram of number of active warp inst buffers at a given time
system.gpu.shader_cores0.lsq.warpInstBufActive::49            0      0.00%    100.00% # Histogram of number of active warp inst buffers at a given time
system.gpu.shader_cores0.lsq.warpInstBufActive::50            0      0.00%    100.00% # Histogram of number of active warp inst buffers at a given time
system.gpu.shader_cores0.lsq.warpInstBufActive::51            0      0.00%    100.00% # Histogram of number of active warp inst buffers at a given time
system.gpu.shader_cores0.lsq.warpInstBufActive::52            0      0.00%    100.00% # Histogram of number of active warp inst buffers at a given time
system.gpu.shader_cores0.lsq.warpInstBufActive::53            0      0.00%    100.00% # Histogram of number of active warp inst buffers at a given time
system.gpu.shader_cores0.lsq.warpInstBufActive::54            0      0.00%    100.00% # Histogram of number of active warp inst buffers at a given time
system.gpu.shader_cores0.lsq.warpInstBufActive::55            0      0.00%    100.00% # Histogram of number of active warp inst buffers at a given time
system.gpu.shader_cores0.lsq.warpInstBufActive::56            0      0.00%    100.00% # Histogram of number of active warp inst buffers at a given time
system.gpu.shader_cores0.lsq.warpInstBufActive::57            0      0.00%    100.00% # Histogram of number of active warp inst buffers at a given time
system.gpu.shader_cores0.lsq.warpInstBufActive::58            0      0.00%    100.00% # Histogram of number of active warp inst buffers at a given time
system.gpu.shader_cores0.lsq.warpInstBufActive::59            0      0.00%    100.00% # Histogram of number of active warp inst buffers at a given time
system.gpu.shader_cores0.lsq.warpInstBufActive::60            0      0.00%    100.00% # Histogram of number of active warp inst buffers at a given time
system.gpu.shader_cores0.lsq.warpInstBufActive::61            0      0.00%    100.00% # Histogram of number of active warp inst buffers at a given time
system.gpu.shader_cores0.lsq.warpInstBufActive::62            0      0.00%    100.00% # Histogram of number of active warp inst buffers at a given time
system.gpu.shader_cores0.lsq.warpInstBufActive::63            0      0.00%    100.00% # Histogram of number of active warp inst buffers at a given time
system.gpu.shader_cores0.lsq.warpInstBufActive::64            0      0.00%    100.00% # Histogram of number of active warp inst buffers at a given time
system.gpu.shader_cores0.lsq.warpInstBufActive::total      7869503                       # Histogram of number of active warp inst buffers at a given time
system.gpu.shader_cores0.lsq.cacheAccesses     0.003114                       # Average number of concurrent outstanding cache accesses
system.gpu.shader_cores0.lsq.writebackBlockedCycles          111                       # Number of cycles blocked for core writeback stage
system.gpu.shader_cores0.lsq.mshrHitQueued          174                       # Number of hits on blocked lines in MSHRs
system.gpu.shader_cores0.lsq.mshrsFullCycles            0                       # Number of cycles stalled waiting for an MSHR
system.gpu.shader_cores0.lsq.mshrsFullCount            0                       # Number of times MSHRs filled
system.gpu.shader_cores0.lsq.warpCoalescedAccesses::samples          416                       # Number of coalesced accesses per warp instruction
system.gpu.shader_cores0.lsq.warpCoalescedAccesses::mean     1.769231                       # Number of coalesced accesses per warp instruction
system.gpu.shader_cores0.lsq.warpCoalescedAccesses::gmean     1.608176                       # Number of coalesced accesses per warp instruction
system.gpu.shader_cores0.lsq.warpCoalescedAccesses::stdev     0.763388                       # Number of coalesced accesses per warp instruction
system.gpu.shader_cores0.lsq.warpCoalescedAccesses::0            0      0.00%      0.00% # Number of coalesced accesses per warp instruction
system.gpu.shader_cores0.lsq.warpCoalescedAccesses::1          180     43.27%     43.27% # Number of coalesced accesses per warp instruction
system.gpu.shader_cores0.lsq.warpCoalescedAccesses::2          152     36.54%     79.81% # Number of coalesced accesses per warp instruction
system.gpu.shader_cores0.lsq.warpCoalescedAccesses::3           84     20.19%    100.00% # Number of coalesced accesses per warp instruction
system.gpu.shader_cores0.lsq.warpCoalescedAccesses::4            0      0.00%    100.00% # Number of coalesced accesses per warp instruction
system.gpu.shader_cores0.lsq.warpCoalescedAccesses::5            0      0.00%    100.00% # Number of coalesced accesses per warp instruction
system.gpu.shader_cores0.lsq.warpCoalescedAccesses::6            0      0.00%    100.00% # Number of coalesced accesses per warp instruction
system.gpu.shader_cores0.lsq.warpCoalescedAccesses::7            0      0.00%    100.00% # Number of coalesced accesses per warp instruction
system.gpu.shader_cores0.lsq.warpCoalescedAccesses::8            0      0.00%    100.00% # Number of coalesced accesses per warp instruction
system.gpu.shader_cores0.lsq.warpCoalescedAccesses::9            0      0.00%    100.00% # Number of coalesced accesses per warp instruction
system.gpu.shader_cores0.lsq.warpCoalescedAccesses::10            0      0.00%    100.00% # Number of coalesced accesses per warp instruction
system.gpu.shader_cores0.lsq.warpCoalescedAccesses::11            0      0.00%    100.00% # Number of coalesced accesses per warp instruction
system.gpu.shader_cores0.lsq.warpCoalescedAccesses::12            0      0.00%    100.00% # Number of coalesced accesses per warp instruction
system.gpu.shader_cores0.lsq.warpCoalescedAccesses::13            0      0.00%    100.00% # Number of coalesced accesses per warp instruction
system.gpu.shader_cores0.lsq.warpCoalescedAccesses::14            0      0.00%    100.00% # Number of coalesced accesses per warp instruction
system.gpu.shader_cores0.lsq.warpCoalescedAccesses::15            0      0.00%    100.00% # Number of coalesced accesses per warp instruction
system.gpu.shader_cores0.lsq.warpCoalescedAccesses::16            0      0.00%    100.00% # Number of coalesced accesses per warp instruction
system.gpu.shader_cores0.lsq.warpCoalescedAccesses::17            0      0.00%    100.00% # Number of coalesced accesses per warp instruction
system.gpu.shader_cores0.lsq.warpCoalescedAccesses::18            0      0.00%    100.00% # Number of coalesced accesses per warp instruction
system.gpu.shader_cores0.lsq.warpCoalescedAccesses::19            0      0.00%    100.00% # Number of coalesced accesses per warp instruction
system.gpu.shader_cores0.lsq.warpCoalescedAccesses::20            0      0.00%    100.00% # Number of coalesced accesses per warp instruction
system.gpu.shader_cores0.lsq.warpCoalescedAccesses::21            0      0.00%    100.00% # Number of coalesced accesses per warp instruction
system.gpu.shader_cores0.lsq.warpCoalescedAccesses::22            0      0.00%    100.00% # Number of coalesced accesses per warp instruction
system.gpu.shader_cores0.lsq.warpCoalescedAccesses::23            0      0.00%    100.00% # Number of coalesced accesses per warp instruction
system.gpu.shader_cores0.lsq.warpCoalescedAccesses::24            0      0.00%    100.00% # Number of coalesced accesses per warp instruction
system.gpu.shader_cores0.lsq.warpCoalescedAccesses::25            0      0.00%    100.00% # Number of coalesced accesses per warp instruction
system.gpu.shader_cores0.lsq.warpCoalescedAccesses::26            0      0.00%    100.00% # Number of coalesced accesses per warp instruction
system.gpu.shader_cores0.lsq.warpCoalescedAccesses::27            0      0.00%    100.00% # Number of coalesced accesses per warp instruction
system.gpu.shader_cores0.lsq.warpCoalescedAccesses::28            0      0.00%    100.00% # Number of coalesced accesses per warp instruction
system.gpu.shader_cores0.lsq.warpCoalescedAccesses::29            0      0.00%    100.00% # Number of coalesced accesses per warp instruction
system.gpu.shader_cores0.lsq.warpCoalescedAccesses::30            0      0.00%    100.00% # Number of coalesced accesses per warp instruction
system.gpu.shader_cores0.lsq.warpCoalescedAccesses::31            0      0.00%    100.00% # Number of coalesced accesses per warp instruction
system.gpu.shader_cores0.lsq.warpCoalescedAccesses::32            0      0.00%    100.00% # Number of coalesced accesses per warp instruction
system.gpu.shader_cores0.lsq.warpCoalescedAccesses::total          416                       # Number of coalesced accesses per warp instruction
system.gpu.shader_cores0.lsq.warpLatencyRead::samples          288                       # Latency in cycles for whole warp to finish the read
system.gpu.shader_cores0.lsq.warpLatencyRead::mean   117.701389                       # Latency in cycles for whole warp to finish the read
system.gpu.shader_cores0.lsq.warpLatencyRead::gmean    50.911497                       # Latency in cycles for whole warp to finish the read
system.gpu.shader_cores0.lsq.warpLatencyRead::stdev   138.059805                       # Latency in cycles for whole warp to finish the read
system.gpu.shader_cores0.lsq.warpLatencyRead::0-63          142     49.31%     49.31% # Latency in cycles for whole warp to finish the read
system.gpu.shader_cores0.lsq.warpLatencyRead::64-127           53     18.40%     67.71% # Latency in cycles for whole warp to finish the read
system.gpu.shader_cores0.lsq.warpLatencyRead::128-191           18      6.25%     73.96% # Latency in cycles for whole warp to finish the read
system.gpu.shader_cores0.lsq.warpLatencyRead::192-255           23      7.99%     81.94% # Latency in cycles for whole warp to finish the read
system.gpu.shader_cores0.lsq.warpLatencyRead::256-319           17      5.90%     87.85% # Latency in cycles for whole warp to finish the read
system.gpu.shader_cores0.lsq.warpLatencyRead::320-383           15      5.21%     93.06% # Latency in cycles for whole warp to finish the read
system.gpu.shader_cores0.lsq.warpLatencyRead::384-447           10      3.47%     96.53% # Latency in cycles for whole warp to finish the read
system.gpu.shader_cores0.lsq.warpLatencyRead::448-511            8      2.78%     99.31% # Latency in cycles for whole warp to finish the read
system.gpu.shader_cores0.lsq.warpLatencyRead::512-575            2      0.69%    100.00% # Latency in cycles for whole warp to finish the read
system.gpu.shader_cores0.lsq.warpLatencyRead::576-639            0      0.00%    100.00% # Latency in cycles for whole warp to finish the read
system.gpu.shader_cores0.lsq.warpLatencyRead::640-703            0      0.00%    100.00% # Latency in cycles for whole warp to finish the read
system.gpu.shader_cores0.lsq.warpLatencyRead::704-767            0      0.00%    100.00% # Latency in cycles for whole warp to finish the read
system.gpu.shader_cores0.lsq.warpLatencyRead::768-831            0      0.00%    100.00% # Latency in cycles for whole warp to finish the read
system.gpu.shader_cores0.lsq.warpLatencyRead::832-895            0      0.00%    100.00% # Latency in cycles for whole warp to finish the read
system.gpu.shader_cores0.lsq.warpLatencyRead::896-959            0      0.00%    100.00% # Latency in cycles for whole warp to finish the read
system.gpu.shader_cores0.lsq.warpLatencyRead::960-1023            0      0.00%    100.00% # Latency in cycles for whole warp to finish the read
system.gpu.shader_cores0.lsq.warpLatencyRead::total          288                       # Latency in cycles for whole warp to finish the read
system.gpu.shader_cores0.lsq.warpLatencyWrite::samples          128                       # Latency in cycles for whole warp to finish the write
system.gpu.shader_cores0.lsq.warpLatencyWrite::mean    26.781250                       # Latency in cycles for whole warp to finish the write
system.gpu.shader_cores0.lsq.warpLatencyWrite::gmean    21.940072                       # Latency in cycles for whole warp to finish the write
system.gpu.shader_cores0.lsq.warpLatencyWrite::stdev    18.372325                       # Latency in cycles for whole warp to finish the write
system.gpu.shader_cores0.lsq.warpLatencyWrite::0-3            0      0.00%      0.00% # Latency in cycles for whole warp to finish the write
system.gpu.shader_cores0.lsq.warpLatencyWrite::4-7            0      0.00%      0.00% # Latency in cycles for whole warp to finish the write
system.gpu.shader_cores0.lsq.warpLatencyWrite::8-11            0      0.00%      0.00% # Latency in cycles for whole warp to finish the write
system.gpu.shader_cores0.lsq.warpLatencyWrite::12-15           61     47.66%     47.66% # Latency in cycles for whole warp to finish the write
system.gpu.shader_cores0.lsq.warpLatencyWrite::16-19           11      8.59%     56.25% # Latency in cycles for whole warp to finish the write
system.gpu.shader_cores0.lsq.warpLatencyWrite::20-23            5      3.91%     60.16% # Latency in cycles for whole warp to finish the write
system.gpu.shader_cores0.lsq.warpLatencyWrite::24-27           15     11.72%     71.88% # Latency in cycles for whole warp to finish the write
system.gpu.shader_cores0.lsq.warpLatencyWrite::28-31            3      2.34%     74.22% # Latency in cycles for whole warp to finish the write
system.gpu.shader_cores0.lsq.warpLatencyWrite::32-35            1      0.78%     75.00% # Latency in cycles for whole warp to finish the write
system.gpu.shader_cores0.lsq.warpLatencyWrite::36-39            0      0.00%     75.00% # Latency in cycles for whole warp to finish the write
system.gpu.shader_cores0.lsq.warpLatencyWrite::40-43            0      0.00%     75.00% # Latency in cycles for whole warp to finish the write
system.gpu.shader_cores0.lsq.warpLatencyWrite::44-47            0      0.00%     75.00% # Latency in cycles for whole warp to finish the write
system.gpu.shader_cores0.lsq.warpLatencyWrite::48-51            5      3.91%     78.91% # Latency in cycles for whole warp to finish the write
system.gpu.shader_cores0.lsq.warpLatencyWrite::52-55            8      6.25%     85.16% # Latency in cycles for whole warp to finish the write
system.gpu.shader_cores0.lsq.warpLatencyWrite::56-59            4      3.12%     88.28% # Latency in cycles for whole warp to finish the write
system.gpu.shader_cores0.lsq.warpLatencyWrite::60-63           15     11.72%    100.00% # Latency in cycles for whole warp to finish the write
system.gpu.shader_cores0.lsq.warpLatencyWrite::total          128                       # Latency in cycles for whole warp to finish the write
system.gpu.shader_cores0.lsq.warpLatencyFence::samples          288                       # Latency in cycles for whole warp to finish the fence
system.gpu.shader_cores0.lsq.warpLatencyFence::mean     8.378472                       # Latency in cycles for whole warp to finish the fence
system.gpu.shader_cores0.lsq.warpLatencyFence::gmean     7.568626                       # Latency in cycles for whole warp to finish the fence
system.gpu.shader_cores0.lsq.warpLatencyFence::stdev     4.696261                       # Latency in cycles for whole warp to finish the fence
system.gpu.shader_cores0.lsq.warpLatencyFence::0-1            0      0.00%      0.00% # Latency in cycles for whole warp to finish the fence
system.gpu.shader_cores0.lsq.warpLatencyFence::2-3            0      0.00%      0.00% # Latency in cycles for whole warp to finish the fence
system.gpu.shader_cores0.lsq.warpLatencyFence::4-5            0      0.00%      0.00% # Latency in cycles for whole warp to finish the fence
system.gpu.shader_cores0.lsq.warpLatencyFence::6-7          211     73.26%     73.26% # Latency in cycles for whole warp to finish the fence
system.gpu.shader_cores0.lsq.warpLatencyFence::8-9            9      3.12%     76.39% # Latency in cycles for whole warp to finish the fence
system.gpu.shader_cores0.lsq.warpLatencyFence::10-11            6      2.08%     78.47% # Latency in cycles for whole warp to finish the fence
system.gpu.shader_cores0.lsq.warpLatencyFence::12-13           32     11.11%     89.58% # Latency in cycles for whole warp to finish the fence
system.gpu.shader_cores0.lsq.warpLatencyFence::14-15           10      3.47%     93.06% # Latency in cycles for whole warp to finish the fence
system.gpu.shader_cores0.lsq.warpLatencyFence::16-17            7      2.43%     95.49% # Latency in cycles for whole warp to finish the fence
system.gpu.shader_cores0.lsq.warpLatencyFence::18-19            1      0.35%     95.83% # Latency in cycles for whole warp to finish the fence
system.gpu.shader_cores0.lsq.warpLatencyFence::20-21            0      0.00%     95.83% # Latency in cycles for whole warp to finish the fence
system.gpu.shader_cores0.lsq.warpLatencyFence::22-23            1      0.35%     96.18% # Latency in cycles for whole warp to finish the fence
system.gpu.shader_cores0.lsq.warpLatencyFence::24-25            7      2.43%     98.61% # Latency in cycles for whole warp to finish the fence
system.gpu.shader_cores0.lsq.warpLatencyFence::26-27            2      0.69%     99.31% # Latency in cycles for whole warp to finish the fence
system.gpu.shader_cores0.lsq.warpLatencyFence::28-29            2      0.69%    100.00% # Latency in cycles for whole warp to finish the fence
system.gpu.shader_cores0.lsq.warpLatencyFence::30-31            0      0.00%    100.00% # Latency in cycles for whole warp to finish the fence
system.gpu.shader_cores0.lsq.warpLatencyFence::total          288                       # Latency in cycles for whole warp to finish the fence
system.gpu.shader_cores0.lsq.warpLatencyAtomic::samples            0                       # Latency in cycles for whole warp to finish the atomic
system.gpu.shader_cores0.lsq.warpLatencyAtomic::mean          nan                       # Latency in cycles for whole warp to finish the atomic
system.gpu.shader_cores0.lsq.warpLatencyAtomic::gmean          nan                       # Latency in cycles for whole warp to finish the atomic
system.gpu.shader_cores0.lsq.warpLatencyAtomic::stdev          nan                       # Latency in cycles for whole warp to finish the atomic
system.gpu.shader_cores0.lsq.warpLatencyAtomic::0            0                       # Latency in cycles for whole warp to finish the atomic
system.gpu.shader_cores0.lsq.warpLatencyAtomic::1            0                       # Latency in cycles for whole warp to finish the atomic
system.gpu.shader_cores0.lsq.warpLatencyAtomic::2            0                       # Latency in cycles for whole warp to finish the atomic
system.gpu.shader_cores0.lsq.warpLatencyAtomic::3            0                       # Latency in cycles for whole warp to finish the atomic
system.gpu.shader_cores0.lsq.warpLatencyAtomic::4            0                       # Latency in cycles for whole warp to finish the atomic
system.gpu.shader_cores0.lsq.warpLatencyAtomic::5            0                       # Latency in cycles for whole warp to finish the atomic
system.gpu.shader_cores0.lsq.warpLatencyAtomic::6            0                       # Latency in cycles for whole warp to finish the atomic
system.gpu.shader_cores0.lsq.warpLatencyAtomic::7            0                       # Latency in cycles for whole warp to finish the atomic
system.gpu.shader_cores0.lsq.warpLatencyAtomic::8            0                       # Latency in cycles for whole warp to finish the atomic
system.gpu.shader_cores0.lsq.warpLatencyAtomic::9            0                       # Latency in cycles for whole warp to finish the atomic
system.gpu.shader_cores0.lsq.warpLatencyAtomic::10            0                       # Latency in cycles for whole warp to finish the atomic
system.gpu.shader_cores0.lsq.warpLatencyAtomic::11            0                       # Latency in cycles for whole warp to finish the atomic
system.gpu.shader_cores0.lsq.warpLatencyAtomic::12            0                       # Latency in cycles for whole warp to finish the atomic
system.gpu.shader_cores0.lsq.warpLatencyAtomic::13            0                       # Latency in cycles for whole warp to finish the atomic
system.gpu.shader_cores0.lsq.warpLatencyAtomic::14            0                       # Latency in cycles for whole warp to finish the atomic
system.gpu.shader_cores0.lsq.warpLatencyAtomic::15            0                       # Latency in cycles for whole warp to finish the atomic
system.gpu.shader_cores0.lsq.warpLatencyAtomic::total            0                       # Latency in cycles for whole warp to finish the atomic
system.gpu.shader_cores0.lsq.tlbMissLatency::samples            0                       # Latency in cycles for TLB miss
system.gpu.shader_cores0.lsq.tlbMissLatency::mean          nan                       # Latency in cycles for TLB miss
system.gpu.shader_cores0.lsq.tlbMissLatency::gmean          nan                       # Latency in cycles for TLB miss
system.gpu.shader_cores0.lsq.tlbMissLatency::stdev          nan                       # Latency in cycles for TLB miss
system.gpu.shader_cores0.lsq.tlbMissLatency::0            0                       # Latency in cycles for TLB miss
system.gpu.shader_cores0.lsq.tlbMissLatency::1            0                       # Latency in cycles for TLB miss
system.gpu.shader_cores0.lsq.tlbMissLatency::2            0                       # Latency in cycles for TLB miss
system.gpu.shader_cores0.lsq.tlbMissLatency::3            0                       # Latency in cycles for TLB miss
system.gpu.shader_cores0.lsq.tlbMissLatency::4            0                       # Latency in cycles for TLB miss
system.gpu.shader_cores0.lsq.tlbMissLatency::5            0                       # Latency in cycles for TLB miss
[...]
system.ruby.L1Cache_Controller.M.Other_GETS |           4      5.56%      5.56% |          32     44.44%     50.00% |          15     20.83%     70.83% |           9     12.50%     83.33% |          11     15.28%     98.61% |           0      0.00%     98.61% |           1      1.39%    100.00%
system.ruby.L1Cache_Controller.M.Other_GETS::total           72                      
system.ruby.L1Cache_Controller.MM.Load   |     1134206     99.99%     99.99% |          17      0.00%    100.00% |          21      0.00%    100.00% |          16      0.00%    100.00% |          11      0.00%    100.00% |           0      0.00%    100.00% |           0      0.00%    100.00%
system.ruby.L1Cache_Controller.MM.Load::total      1134271                      
system.ruby.L1Cache_Controller.MM.Store  |      842245     99.91%     99.91% |         195      0.02%     99.93% |         196      0.02%     99.96% |         185      0.02%     99.98% |         185      0.02%    100.00% |           0      0.00%    100.00% |           0      0.00%    100.00%
system.ruby.L1Cache_Controller.MM.Store::total       843006                      
system.ruby.L1Cache_Controller.MM.L2_Replacement |           0      0.00%      0.00% |           0      0.00%      0.00% |           0      0.00%      0.00% |           0      0.00%      0.00% |           0      0.00%      0.00% |         377     74.80%     74.80% |         127     25.20%    100.00%
system.ruby.L1Cache_Controller.MM.L2_Replacement::total          504                      
system.ruby.L1Cache_Controller.MM.L1_to_L2 |         660     54.82%     54.82% |           0      0.00%     54.82% |           0      0.00%     54.82% |           0      0.00%     54.82% |           0      0.00%     54.82% |         405     33.64%     88.46% |         139     11.54%    100.00%
system.ruby.L1Cache_Controller.MM.L1_to_L2::total         1204                      
system.ruby.L1Cache_Controller.MM.Trigger_L2_to_L1D |         444    100.00%    100.00% |           0      0.00%    100.00% |           0      0.00%    100.00% |           0      0.00%    100.00% |           0      0.00%    100.00% |           0      0.00%    100.00% |           0      0.00%    100.00%
system.ruby.L1Cache_Controller.MM.Trigger_L2_to_L1D::total          444                      
system.ruby.L1Cache_Controller.MM.Other_GETX |           0      0.00%      0.00% |          45     25.14%     25.14% |          47     26.26%     51.40% |          42     23.46%     74.86% |          45     25.14%    100.00% |           0      0.00%    100.00% |           0      0.00%    100.00%
system.ruby.L1Cache_Controller.MM.Other_GETX::total          179                      
system.ruby.L1Cache_Controller.MM.Other_GETS |         285     57.69%     57.69% |          35      7.09%     64.78% |          40      8.10%     72.87% |          38      7.69%     80.57% |          43      8.70%     89.27% |          44      8.91%     98.18% |           9      1.82%    100.00%
system.ruby.L1Cache_Controller.MM.Other_GETS::total          494                      
system.ruby.L1Cache_Controller.IR.Load   |          44    100.00%    100.00% |           0      0.00%    100.00% |           0      0.00%    100.00% |           0      0.00%    100.00% |           0      0.00%    100.00% |           0      0.00%    100.00% |           0      0.00%    100.00%
system.ruby.L1Cache_Controller.IR.Load::total           44                      
system.ruby.L1Cache_Controller.OR.Load   |           0      0.00%      0.00% |           0      0.00%      0.00% |           0      0.00%      0.00% |           0      0.00%      0.00% |           0      0.00%      0.00% |           0      0.00%      0.00% |           1    100.00%    100.00%
system.ruby.L1Cache_Controller.OR.Load::total            1                      
system.ruby.L1Cache_Controller.MR.Load   |          20    100.00%    100.00% |           0      0.00%    100.00% |           0      0.00%    100.00% |           0      0.00%    100.00% |           0      0.00%    100.00% |           0      0.00%    100.00% |           0      0.00%    100.00%
system.ruby.L1Cache_Controller.MR.Load::total           20                      
system.ruby.L1Cache_Controller.MR.Ifetch |        5063    100.00%    100.00% |           0      0.00%    100.00% |           0      0.00%    100.00% |           0      0.00%    100.00% |           0      0.00%    100.00% |           0      0.00%    100.00% |           0      0.00%    100.00%
system.ruby.L1Cache_Controller.MR.Ifetch::total         5063                      
system.ruby.L1Cache_Controller.MR.Store  |           1    100.00%    100.00% |           0      0.00%    100.00% |           0      0.00%    100.00% |           0      0.00%    100.00% |           0      0.00%    100.00% |           0      0.00%    100.00% |           0      0.00%    100.00%
system.ruby.L1Cache_Controller.MR.Store::total            1                      
system.ruby.L1Cache_Controller.MMR.Load  |         420    100.00%    100.00% |           0      0.00%    100.00% |           0      0.00%    100.00% |           0      0.00%    100.00% |           0      0.00%    100.00% |           0      0.00%    100.00% |           0      0.00%    100.00%
system.ruby.L1Cache_Controller.MMR.Load::total          420                      
system.ruby.L1Cache_Controller.MMR.Store |          24    100.00%    100.00% |           0      0.00%    100.00% |           0      0.00%    100.00% |           0      0.00%    100.00% |           0      0.00%    100.00% |           0      0.00%    100.00% |           0      0.00%    100.00%
system.ruby.L1Cache_Controller.MMR.Store::total           24                      
system.ruby.L1Cache_Controller.IM.L1_to_L2 |           0      0.00%      0.00% |           0      0.00%      0.00% |           0      0.00%      0.00% |           0      0.00%      0.00% |           0      0.00%      0.00% |        8224     66.77%     66.77% |        4092     33.23%    100.00%
system.ruby.L1Cache_Controller.IM.L1_to_L2::total        12316                      
system.ruby.L1Cache_Controller.IM.Other_GETX |           0      0.00%      0.00% |           0      0.00%      0.00% |           0      0.00%      0.00% |           0      0.00%      0.00% |           2    100.00%    100.00% |           0      0.00%    100.00% |           0      0.00%    100.00%
system.ruby.L1Cache_Controller.IM.Other_GETX::total            2                      
system.ruby.L1Cache_Controller.IM.Ack    |        4704     60.21%     60.21% |          35      0.45%     60.66% |          47      0.60%     61.26% |          29      0.37%     61.63% |          36      0.46%     62.09% |        2098     26.85%     88.94% |         864     11.06%    100.00%
system.ruby.L1Cache_Controller.IM.Ack::total         7813                      
system.ruby.L1Cache_Controller.IM.Data   |           0      0.00%      0.00% |           0      0.00%      0.00% |           0      0.00%      0.00% |           0      0.00%      0.00% |           0      0.00%      0.00% |           0      0.00%      0.00% |           5    100.00%    100.00%
system.ruby.L1Cache_Controller.IM.Data::total            5                      
system.ruby.L1Cache_Controller.IM.Exclusive_Data |         784     55.80%     55.80% |           9      0.64%     56.44% |          14      1.00%     57.44% |          13      0.93%     58.36% |          14      1.00%     59.36% |         421     29.96%     89.32% |         150     10.68%    100.00%
system.ruby.L1Cache_Controller.IM.Exclusive_Data::total         1405                      
system.ruby.L1Cache_Controller.SM.Ack    |           0      0.00%      0.00% |           7     25.00%     25.00% |           6     21.43%     46.43% |           9     32.14%     78.57% |           6     21.43%    100.00% |           0      0.00%    100.00% |           0      0.00%    100.00%
system.ruby.L1Cache_Controller.SM.Ack::total           28                      
system.ruby.L1Cache_Controller.SM.Data   |           0      0.00%      0.00% |           2     16.67%     16.67% |           3     25.00%     41.67% |           5     41.67%     83.33% |           2     16.67%    100.00% |           0      0.00%    100.00% |           0      0.00%    100.00%
system.ruby.L1Cache_Controller.SM.Data::total           12                      
system.ruby.L1Cache_Controller.OM.Ack    |           0      0.00%      0.00% |          72     36.36%     36.36% |          30     15.15%     51.52% |          42     21.21%     72.73% |          54     27.27%    100.00% |           0      0.00%    100.00% |           0      0.00%    100.00%
system.ruby.L1Cache_Controller.OM.Ack::total          198                      
system.ruby.L1Cache_Controller.OM.All_acks_no_sharers |           0      0.00%      0.00% |          12     36.36%     36.36% |           5     15.15%     51.52% |           7     21.21%     72.73% |           9     27.27%    100.00% |           0      0.00%    100.00% |           0      0.00%    100.00%
system.ruby.L1Cache_Controller.OM.All_acks_no_sharers::total           33                      
system.ruby.L1Cache_Controller.ISM.Ack   |           0      0.00%      0.00% |           3      6.98%      6.98% |           9     20.93%     27.91% |          16     37.21%     65.12% |           4      9.30%     74.42% |           0      0.00%     74.42% |          11     25.58%    100.00%
system.ruby.L1Cache_Controller.ISM.Ack::total           43                      
system.ruby.L1Cache_Controller.ISM.All_acks_no_sharers |           0      0.00%      0.00% |           2     11.76%     11.76% |           3     17.65%     29.41% |           5     29.41%     58.82% |           2     11.76%     70.59% |           0      0.00%     70.59% |           5     29.41%    100.00%
system.ruby.L1Cache_Controller.ISM.All_acks_no_sharers::total           17                      
system.ruby.L1Cache_Controller.M_W.Load  |           0      0.00%      0.00% |           3    100.00%    100.00% |           0      0.00%    100.00% |           0      0.00%    100.00% |           0      0.00%    100.00% |           0      0.00%    100.00% |           0      0.00%    100.00%
system.ruby.L1Cache_Controller.M_W.Load::total            3                      
system.ruby.L1Cache_Controller.M_W.L1_to_L2 |           0      0.00%      0.00% |           0      0.00%      0.00% |           0      0.00%      0.00% |           0      0.00%      0.00% |           0      0.00%      0.00% |         833     29.08%     29.08% |        2032     70.92%    100.00%
system.ruby.L1Cache_Controller.M_W.L1_to_L2::total         2865                      
system.ruby.L1Cache_Controller.M_W.Ack   |          16      2.09%      2.09% |          43      5.61%      7.69% |           6      0.78%      8.47% |          17      2.22%     10.69% |          28      3.65%     14.34% |         337     43.94%     58.28% |         320     41.72%    100.00%
system.ruby.L1Cache_Controller.M_W.Ack::total          767                      
system.ruby.L1Cache_Controller.M_W.All_acks_no_sharers |         647     39.12%     39.12% |         121      7.32%     46.43% |         118      7.13%     53.57% |          96      5.80%     59.37% |         110      6.65%     66.02% |         145      8.77%     74.79% |         417     25.21%    100.00%
system.ruby.L1Cache_Controller.M_W.All_acks_no_sharers::total         1654                      
system.ruby.L1Cache_Controller.MM_W.Store |           0      0.00%      0.00% |           1      4.00%      4.00% |           2      8.00%     12.00% |          11     44.00%     56.00% |          11     44.00%    100.00% |           0      0.00%    100.00% |           0      0.00%    100.00%
system.ruby.L1Cache_Controller.MM_W.Store::total           25                      
system.ruby.L1Cache_Controller.MM_W.L1_to_L2 |           0      0.00%      0.00% |           0      0.00%      0.00% |           0      0.00%      0.00% |           0      0.00%      0.00% |           0      0.00%      0.00% |        2614     66.84%     66.84% |        1297     33.16%    100.00%
system.ruby.L1Cache_Controller.MM_W.L1_to_L2::total         3911                      
system.ruby.L1Cache_Controller.MM_W.Ack  |           0      0.00%      0.00% |          14      3.12%      3.12% |          26      5.80%      8.93% |          37      8.26%     17.19% |          34      7.59%     24.78% |         291     64.96%     89.73% |          46     10.27%    100.00%
system.ruby.L1Cache_Controller.MM_W.Ack::total          448                      
system.ruby.L1Cache_Controller.MM_W.All_acks_no_sharers |         784     55.80%     55.80% |           9      0.64%     56.44% |          14      1.00%     57.44% |          13      0.93%     58.36% |          14      1.00%     59.36% |         421     29.96%     89.32% |         150     10.68%    100.00%
system.ruby.L1Cache_Controller.MM_W.All_acks_no_sharers::total         1405                      
system.ruby.L1Cache_Controller.IS.L1_to_L2 |           0      0.00%      0.00% |           0      0.00%      0.00% |           0      0.00%      0.00% |           0      0.00%      0.00% |           0      0.00%      0.00% |        4610     22.33%     22.33% |       16034     77.67%    100.00%
system.ruby.L1Cache_Controller.IS.L1_to_L2::total        20644                      
system.ruby.L1Cache_Controller.IS.Other_GETS |           0      0.00%      0.00% |           6     13.64%     13.64% |           7     15.91%     29.55% |          18     40.91%     70.45% |          13     29.55%    100.00% |           0      0.00%    100.00% |           0      0.00%    100.00%
system.ruby.L1Cache_Controller.IS.Other_GETS::total           44                      
system.ruby.L1Cache_Controller.IS.Ack    |        3861     43.38%     43.38% |         684      7.68%     51.06% |         755      8.48%     59.54% |         607      6.82%     66.36% |         670      7.53%     73.89% |         414      4.65%     78.54% |        1910     21.46%    100.00%
system.ruby.L1Cache_Controller.IS.Ack::total         8901                      
system.ruby.L1Cache_Controller.IS.Shared_Ack |           0      0.00%      0.00% |           0      0.00%      0.00% |           0      0.00%      0.00% |           0      0.00%      0.00% |           1      7.14%      7.14% |          12     85.71%     92.86% |           1      7.14%    100.00%
system.ruby.L1Cache_Controller.IS.Shared_Ack::total           14                      
system.ruby.L1Cache_Controller.IS.Data   |           0      0.00%      0.00% |           0      0.00%      0.00% |           0      0.00%      0.00% |           0      0.00%      0.00% |           0      0.00%      0.00% |           0      0.00%      0.00% |           1    100.00%    100.00%
system.ruby.L1Cache_Controller.IS.Data::total            1                      
system.ruby.L1Cache_Controller.IS.Shared_Data |           1      0.88%      0.88% |          10      8.85%      9.73% |          23     20.35%     30.09% |          36     31.86%     61.95% |          30     26.55%     88.50% |           9      7.96%     96.46% |           4      3.54%    100.00%
system.ruby.L1Cache_Controller.IS.Shared_Data::total          113                      
system.ruby.L1Cache_Controller.IS.Exclusive_Data |         647     39.12%     39.12% |         121      7.32%     46.43% |         118      7.13%     53.57% |          96      5.80%     59.37% |         110      6.65%     66.02% |         145      8.77%     74.79% |         417     25.21%    100.00%
system.ruby.L1Cache_Controller.IS.Exclusive_Data::total         1654                      
system.ruby.L1Cache_Controller.SS.Load   |           0      0.00%      0.00% |           0      0.00%      0.00% |           6     27.27%     27.27% |           4     18.18%     45.45% |          12     54.55%    100.00% |           0      0.00%    100.00% |           0      0.00%    100.00%
system.ruby.L1Cache_Controller.SS.Load::total           22                      
system.ruby.L1Cache_Controller.SS.Ack    |           1      0.63%      0.63% |          15      9.43%     10.06% |          48     30.19%     40.25% |          45     28.30%     68.55% |          34     21.38%     89.94% |           4      2.52%     92.45% |          12      7.55%    100.00%
system.ruby.L1Cache_Controller.SS.Ack::total          159                      
system.ruby.L1Cache_Controller.SS.Shared_Ack |           0      0.00%      0.00% |           0      0.00%      0.00% |           0      0.00%      0.00% |           0      0.00%      0.00% |           2     40.00%     40.00% |           3     60.00%    100.00% |           0      0.00%    100.00%
system.ruby.L1Cache_Controller.SS.Shared_Ack::total            5                      
system.ruby.L1Cache_Controller.SS.All_acks |           1      0.88%      0.88% |          10      8.77%      9.65% |          23     20.18%     29.82% |          36     31.58%     61.40% |          30     26.32%     87.72% |           9      7.89%     95.61% |           5      4.39%    100.00%
system.ruby.L1Cache_Controller.SS.All_acks::total          114                      
system.ruby.L1Cache_Controller.OI.Writeback_Ack |           0      0.00%      0.00% |           0      0.00%      0.00% |           0      0.00%      0.00% |           0      0.00%      0.00% |           0      0.00%      0.00% |           0      0.00%      0.00% |           1    100.00%    100.00%
system.ruby.L1Cache_Controller.OI.Writeback_Ack::total            1                      
system.ruby.L1Cache_Controller.MI.Writeback_Ack |           0      0.00%      0.00% |           0      0.00%      0.00% |           0      0.00%      0.00% |           0      0.00%      0.00% |           0      0.00%      0.00% |         499     47.89%     47.89% |         543     52.11%    100.00%
system.ruby.L1Cache_Controller.MI.Writeback_Ack::total         1042                      
system.ruby.L1Cache_Controller.IT.Complete_L2_to_L1 |          44    100.00%    100.00% |           0      0.00%    100.00% |           0      0.00%    100.00% |           0      0.00%    100.00% |           0      0.00%    100.00% |           0      0.00%    100.00% |           0      0.00%    100.00%
system.ruby.L1Cache_Controller.IT.Complete_L2_to_L1::total           44                      
system.ruby.L1Cache_Controller.OT.Load   |           0      0.00%      0.00% |           0      0.00%      0.00% |           0      0.00%      0.00% |           0      0.00%      0.00% |           0      0.00%      0.00% |           0      0.00%      0.00% |           3    100.00%    100.00%
system.ruby.L1Cache_Controller.OT.Load::total            3                      
system.ruby.L1Cache_Controller.OT.Complete_L2_to_L1 |           0      0.00%      0.00% |           0      0.00%      0.00% |           0      0.00%      0.00% |           0      0.00%      0.00% |           0      0.00%      0.00% |           0      0.00%      0.00% |           1    100.00%    100.00%
system.ruby.L1Cache_Controller.OT.Complete_L2_to_L1::total            1                      
system.ruby.L1Cache_Controller.MT.Complete_L2_to_L1 |        5084    100.00%    100.00% |           0      0.00%    100.00% |           0      0.00%    100.00% |           0      0.00%    100.00% |           0      0.00%    100.00% |           0      0.00%    100.00% |           0      0.00%    100.00%
system.ruby.L1Cache_Controller.MT.Complete_L2_to_L1::total         5084                      
system.ruby.L1Cache_Controller.MMT.Complete_L2_to_L1 |         444    100.00%    100.00% |           0      0.00%    100.00% |           0      0.00%    100.00% |           0      0.00%    100.00% |           0      0.00%    100.00% |           0      0.00%    100.00% |           0      0.00%    100.00%
system.ruby.L1Cache_Controller.MMT.Complete_L2_to_L1::total          444                      

---------- End Simulation Statistics   ----------
