
---------- Begin Simulation Statistics ----------
sim_seconds                                  0.008904                       # Number of seconds simulated
sim_ticks                                  8904375000                       # Number of ticks simulated
final_tick                                 8904375000                       # Number of ticks from beginning of simulation (restored from checkpoints and never reset)
sim_freq                                 1000000000000                       # Frequency of simulated ticks
host_inst_rate                                 228416                       # Simulator instruction rate (inst/s)
host_op_rate                                   436407                       # Simulator op (including micro ops) rate (op/s)
host_tick_rate                              411183446                       # Simulator tick rate (ticks/s)
host_mem_usage                                4534260                       # Number of bytes of host memory used
host_seconds                                    21.66                       # Real time elapsed on the host
sim_insts                                     4946444                       # Number of instructions simulated
sim_ops                                       9450604                       # Number of ops (including micro ops) simulated
system.voltage_domain.voltage                       1                       # Voltage in Volts
system.clk_domain.clock                          1000                       # Clock period in ticks
system.mem_ctrls.clk_domain.clock                2500                       # Clock period in ticks
system.dev_mem_ctrls.bytes_read::ruby.dev_dir_cntrl0        87296                       # Number of bytes read from this memory
system.dev_mem_ctrls.bytes_read::total          87296                       # Number of bytes read from this memory
system.dev_mem_ctrls.bytes_written::ruby.dev_dir_cntrl0        63872                       # Number of bytes written to this memory
system.dev_mem_ctrls.bytes_written::total        63872                       # Number of bytes written to this memory
system.dev_mem_ctrls.num_reads::ruby.dev_dir_cntrl0          682                       # Number of read requests responded to by this memory
system.dev_mem_ctrls.num_reads::total             682                       # Number of read requests responded to by this memory
system.dev_mem_ctrls.num_writes::ruby.dev_dir_cntrl0          499                       # Number of write requests responded to by this memory
system.dev_mem_ctrls.num_writes::total            499                       # Number of write requests responded to by this memory
system.dev_mem_ctrls.bw_read::ruby.dev_dir_cntrl0      9803720                       # Total read bandwidth from this memory (bytes/s)
system.dev_mem_ctrls.bw_read::total           9803720                       # Total read bandwidth from this memory (bytes/s)
system.dev_mem_ctrls.bw_write::ruby.dev_dir_cntrl0      7173103                       # Write bandwidth from this memory (bytes/s)
system.dev_mem_ctrls.bw_write::total          7173103                       # Write bandwidth from this memory (bytes/s)
system.dev_mem_ctrls.bw_total::ruby.dev_dir_cntrl0     16976823                       # Total bandwidth to/from this memory (bytes/s)
system.dev_mem_ctrls.bw_total::total         16976823                       # Total bandwidth to/from this memory (bytes/s)
system.dev_mem_ctrls.memReq                      1181                       # Total number of memory requests
system.dev_mem_ctrls.memRead                      682                       # Number of memory reads
system.dev_mem_ctrls.memWrite                     499                       # Number of memory writes
system.dev_mem_ctrls.memRefresh                   312                       # Number of memory refreshes
system.dev_mem_ctrls.memWaitCycles              23372                       # Delay stalled at the head of the bank queue
system.dev_mem_ctrls.memInputQ                   9272                       # Delay in the input queue
system.dev_mem_ctrls.memBankQ                   15016                       # Delay behind the head of the bank queue
system.dev_mem_ctrls.totalStalls                47660                       # Total number of stall cycles
system.dev_mem_ctrls.stallsPerReq           40.355631                       # Expected number of stall cycles per request
system.dev_mem_ctrls.memBankBusy                 4056                       # memory stalls due to busy bank
system.dev_mem_ctrls.memBusBusy                  6937                       # memory stalls due to busy bus
system.dev_mem_ctrls.memReadWriteBusy             660                       # memory stalls due to read write turnaround
system.dev_mem_ctrls.memDataBusBusy              2048                       # memory stalls due to read read turnaround
system.dev_mem_ctrls.memArbWait                  4466                       # memory stalls due to arbitration
system.dev_mem_ctrls.memNotOld                   5205                       # memory stalls due to anti starvation
system.dev_mem_ctrls.memBankCount        |          37      3.13%      3.13% |          38      3.22%      6.35% |          38      3.22%      9.57% |          38      3.22%     12.79% |          37      3.13%     15.92% |          38      3.22%     19.14% |          35      2.96%     22.10% |          32      2.71%     24.81% |          30      2.54%     27.35% |          33      2.79%     30.14% |          34      2.88%     33.02% |          34      2.88%     35.90% |          33      2.79%     38.70% |          33      2.79%     41.49% |          33      2.79%     44.28% |          39      3.30%     47.59% |          38      3.22%     50.80% |          39      3.30%     54.11% |          38      3.22%     57.32% |          39      3.30%     60.63% |          40      3.39%     64.01% |          39      3.30%     67.32% |          40      3.39%     70.70% |          41      3.47%     74.17% |          42      3.56%     77.73% |          40      3.39%     81.12% |          42      3.56%     84.67% |          40      3.39%     88.06% |          36      3.05%     91.11% |          35      2.96%     94.07% |          35      2.96%     97.04% |          35      2.96%    100.00% # Number of accesses per bank
system.dev_mem_ctrls.memBankCount::total         1181                       # Number of accesses per bank
system.mem_ctrls.bytes_read::ruby.dir_cntrl0       217600                       # Number of bytes read from this memory
system.mem_ctrls.bytes_read::total             217600                       # Number of bytes read from this memory
system.mem_ctrls.bytes_written::ruby.dir_cntrl0        52224                       # Number of bytes written to this memory
system.mem_ctrls.bytes_written::total           52224                       # Number of bytes written to this memory
system.mem_ctrls.num_reads::ruby.dir_cntrl0         1700                       # Number of read requests responded to by this memory
system.mem_ctrls.num_reads::total                1700                       # Number of read requests responded to by this memory
system.mem_ctrls.num_writes::ruby.dir_cntrl0          408                       # Number of write requests responded to by this memory
system.mem_ctrls.num_writes::total                408                       # Number of write requests responded to by this memory
system.mem_ctrls.bw_read::ruby.dir_cntrl0     24437425                       # Total read bandwidth from this memory (bytes/s)
system.mem_ctrls.bw_read::total              24437425                       # Total read bandwidth from this memory (bytes/s)
system.mem_ctrls.bw_write::ruby.dir_cntrl0      5864982                       # Write bandwidth from this memory (bytes/s)
system.mem_ctrls.bw_write::total              5864982                       # Write bandwidth from this memory (bytes/s)
system.mem_ctrls.bw_total::ruby.dir_cntrl0     30302408                       # Total bandwidth to/from this memory (bytes/s)
system.mem_ctrls.bw_total::total             30302408                       # Total bandwidth to/from this memory (bytes/s)
system.mem_ctrls.memReq                          2108                       # Total number of memory requests
system.mem_ctrls.memRead                         1700                       # Number of memory reads
system.mem_ctrls.memWrite                         408                       # Number of memory writes
system.mem_ctrls.memRefresh                      9258                       # Number of memory refreshes
system.mem_ctrls.memWaitCycles                   5004                       # Delay stalled at the head of the bank queue
system.mem_ctrls.memInputQ                         90                       # Delay in the input queue
system.mem_ctrls.memBankQ                        1085                       # Delay behind the head of the bank queue
system.mem_ctrls.totalStalls                     6179                       # Total number of stall cycles
system.mem_ctrls.stallsPerReq                2.931214                       # Expected number of stall cycles per request
system.mem_ctrls.memBankBusy                     1247                       # memory stalls due to busy bank
system.mem_ctrls.memBusBusy                      1693                       # memory stalls due to busy bus
system.mem_ctrls.memReadWriteBusy                 124                       # memory stalls due to read write turnaround
system.mem_ctrls.memDataBusBusy                    67                       # memory stalls due to read read turnaround
system.mem_ctrls.memArbWait                      1305                       # memory stalls due to arbitration
system.mem_ctrls.memNotOld                        568                       # memory stalls due to anti starvation
system.mem_ctrls.memBankCount            |          63      2.99%      2.99% |          67      3.18%      6.17% |          60      2.85%      9.01% |          66      3.13%     12.14% |          61      2.89%     15.04% |          60      2.85%     17.88% |          57      2.70%     20.59% |          61      2.89%     23.48% |          62      2.94%     26.42% |          61      2.89%     29.32% |          69      3.27%     32.59% |          60      2.85%     35.44% |          57      2.70%     38.14% |          58      2.75%     40.89% |          63      2.99%     43.88% |          62      2.94%     46.82% |          70      3.32%     50.14% |          70      3.32%     53.46% |          67      3.18%     56.64% |          72      3.42%     60.06% |          61      2.89%     62.95% |          62      2.94%     65.89% |          68      3.23%     69.12% |          75      3.56%     72.68% |          84      3.98%     76.66% |          78      3.70%     80.36% |          76      3.61%     83.97% |          70      3.32%     87.29% |          66      3.13%     90.42% |          66      3.13%     93.55% |          69      3.27%     96.82% |          67      3.18%    100.00% # Number of accesses per bank
system.mem_ctrls.memBankCount::total             2108                       # Number of accesses per bank
system.ruby_clk_domain.clock                      500                       # Clock period in ticks
system.ruby.phys_mem.bytes_read::cpu.inst     53171896                       # Number of bytes read from this memory
system.ruby.phys_mem.bytes_read::cpu.data      7953291                       # Number of bytes read from this memory
system.ruby.phys_mem.bytes_read::gpu.ce         73052                       # Number of bytes read from this memory
system.ruby.phys_mem.bytes_read::gpu.shader_cores0.data        35072                       # Number of bytes read from this memory
system.ruby.phys_mem.bytes_read::gpu.shader_cores0.inst          288                       # Number of bytes read from this memory
system.ruby.phys_mem.bytes_read::gpu.shader_cores1.data        35456                       # Number of bytes read from this memory
system.ruby.phys_mem.bytes_read::gpu.shader_cores1.inst          312                       # Number of bytes read from this memory
system.ruby.phys_mem.bytes_read::gpu.shader_cores2.data        35072                       # Number of bytes read from this memory
system.ruby.phys_mem.bytes_read::gpu.shader_cores2.inst          288                       # Number of bytes read from this memory
system.ruby.phys_mem.bytes_read::gpu.shader_cores3.data        34816                       # Number of bytes read from this memory
system.ruby.phys_mem.bytes_read::gpu.shader_cores3.inst          288                       # Number of bytes read from this memory
system.ruby.phys_mem.bytes_read::total       61339831                       # Number of bytes read from this memory
system.ruby.phys_mem.bytes_inst_read::cpu.inst     53171896                       # Number of instructions bytes read from this memory
system.ruby.phys_mem.bytes_inst_read::gpu.shader_cores0.inst          288                       # Number of instructions bytes read from this memory
system.ruby.phys_mem.bytes_inst_read::gpu.shader_cores1.inst          312                       # Number of instructions bytes read from this memory
system.ruby.phys_mem.bytes_inst_read::gpu.shader_cores2.inst          288                       # Number of instructions bytes read from this memory
system.ruby.phys_mem.bytes_inst_read::gpu.shader_cores3.inst          288                       # Number of instructions bytes read from this memory
system.ruby.phys_mem.bytes_inst_read::total     53173072                       # Number of instructions bytes read from this memory
system.ruby.phys_mem.bytes_written::cpu.data      4954819                       # Number of bytes written to this memory
system.ruby.phys_mem.bytes_written::gpu.ce        73052                       # Number of bytes written to this memory
system.ruby.phys_mem.bytes_written::gpu.shader_cores0.data        12544                       # Number of bytes written to this memory
system.ruby.phys_mem.bytes_written::gpu.shader_cores1.data        12672                       # Number of bytes written to this memory
system.ruby.phys_mem.bytes_written::gpu.shader_cores2.data        12544                       # Number of bytes written to this memory
system.ruby.phys_mem.bytes_written::gpu.shader_cores3.data        12544                       # Number of bytes written to this memory
system.ruby.phys_mem.bytes_written::total      5078175                       # Number of bytes written to this memory
system.ruby.phys_mem.num_reads::cpu.inst      6646487                       # Number of read requests responded to by this memory
system.ruby.phys_mem.num_reads::cpu.data      1295108                       # Number of read requests responded to by this memory
system.ruby.phys_mem.num_reads::gpu.ce            577                       # Number of read requests responded to by this memory
system.ruby.phys_mem.num_reads::gpu.shader_cores0.data          428                       # Number of read requests responded to by this memory
system.ruby.phys_mem.num_reads::gpu.shader_cores0.inst           12                       # Number of read requests responded to by this memory
system.ruby.phys_mem.num_reads::gpu.shader_cores1.data          421                       # Number of read requests responded to by this memory
system.ruby.phys_mem.num_reads::gpu.shader_cores1.inst           13                       # Number of read requests responded to by this memory
system.ruby.phys_mem.num_reads::gpu.shader_cores2.data          428                       # Number of read requests responded to by this memory
system.ruby.phys_mem.num_reads::gpu.shader_cores2.inst           12                       # Number of read requests responded to by this memory
system.ruby.phys_mem.num_reads::gpu.shader_cores3.data          416                       # Number of read requests responded to by this memory
system.ruby.phys_mem.num_reads::gpu.shader_cores3.inst           12                       # Number of read requests responded to by this memory
system.ruby.phys_mem.num_reads::total         7943914                       # Number of read requests responded to by this memory
system.ruby.phys_mem.num_writes::cpu.data       785970                       # Number of write requests responded to by this memory
system.ruby.phys_mem.num_writes::gpu.ce           576                       # Number of write requests responded to by this memory
system.ruby.phys_mem.num_writes::gpu.shader_cores0.data          308                       # Number of write requests responded to by this memory
system.ruby.phys_mem.num_writes::gpu.shader_cores1.data          322                       # Number of write requests responded to by this memory
system.ruby.phys_mem.num_writes::gpu.shader_cores2.data          308                       # Number of write requests responded to by this memory
system.ruby.phys_mem.num_writes::gpu.shader_cores3.data          320                       # Number of write requests responded to by this memory
system.ruby.phys_mem.num_writes::total         787804                       # Number of write requests responded to by this memory
system.ruby.phys_mem.bw_read::cpu.inst     5971434941                       # Total read bandwidth from this memory (bytes/s)
system.ruby.phys_mem.bw_read::cpu.data      893189135                       # Total read bandwidth from this memory (bytes/s)
system.ruby.phys_mem.bw_read::gpu.ce          8204057                       # Total read bandwidth from this memory (bytes/s)
system.ruby.phys_mem.bw_read::gpu.shader_cores0.data      3938738                       # Total read bandwidth from this memory (bytes/s)
system.ruby.phys_mem.bw_read::gpu.shader_cores0.inst        32344                       # Total read bandwidth from this memory (bytes/s)
system.ruby.phys_mem.bw_read::gpu.shader_cores1.data      3981863                       # Total read bandwidth from this memory (bytes/s)
system.ruby.phys_mem.bw_read::gpu.shader_cores1.inst        35039                       # Total read bandwidth from this memory (bytes/s)
system.ruby.phys_mem.bw_read::gpu.shader_cores2.data      3938738                       # Total read bandwidth from this memory (bytes/s)
system.ruby.phys_mem.bw_read::gpu.shader_cores2.inst        32344                       # Total read bandwidth from this memory (bytes/s)
system.ruby.phys_mem.bw_read::gpu.shader_cores3.data      3909988                       # Total read bandwidth from this memory (bytes/s)
system.ruby.phys_mem.bw_read::gpu.shader_cores3.inst        32344                       # Total read bandwidth from this memory (bytes/s)
system.ruby.phys_mem.bw_read::total        6888729529                       # Total read bandwidth from this memory (bytes/s)
system.ruby.phys_mem.bw_inst_read::cpu.inst   5971434941                       # Instruction read bandwidth from this memory (bytes/s)
system.ruby.phys_mem.bw_inst_read::gpu.shader_cores0.inst        32344                       # Instruction read bandwidth from this memory (bytes/s)
system.ruby.phys_mem.bw_inst_read::gpu.shader_cores1.inst        35039                       # Instruction read bandwidth from this memory (bytes/s)
system.ruby.phys_mem.bw_inst_read::gpu.shader_cores2.inst        32344                       # Instruction read bandwidth from this memory (bytes/s)
system.ruby.phys_mem.bw_inst_read::gpu.shader_cores3.inst        32344                       # Instruction read bandwidth from this memory (bytes/s)
system.ruby.phys_mem.bw_inst_read::total   5971567011                       # Instruction read bandwidth from this memory (bytes/s)
system.ruby.phys_mem.bw_write::cpu.data     556447701                       # Write bandwidth from this memory (bytes/s)
system.ruby.phys_mem.bw_write::gpu.ce         8204057                       # Write bandwidth from this memory (bytes/s)
system.ruby.phys_mem.bw_write::gpu.shader_cores0.data      1408746                       # Write bandwidth from this memory (bytes/s)
system.ruby.phys_mem.bw_write::gpu.shader_cores1.data      1423121                       # Write bandwidth from this memory (bytes/s)
system.ruby.phys_mem.bw_write::gpu.shader_cores2.data      1408746                       # Write bandwidth from this memory (bytes/s)
system.ruby.phys_mem.bw_write::gpu.shader_cores3.data      1408746                       # Write bandwidth from this memory (bytes/s)
system.ruby.phys_mem.bw_write::total        570301116                       # Write bandwidth from this memory (bytes/s)
system.ruby.phys_mem.bw_total::cpu.inst    5971434941                       # Total bandwidth to/from this memory (bytes/s)
system.ruby.phys_mem.bw_total::cpu.data    1449636836                       # Total bandwidth to/from this memory (bytes/s)
system.ruby.phys_mem.bw_total::gpu.ce        16408114                       # Total bandwidth to/from this memory (bytes/s)
system.ruby.phys_mem.bw_total::gpu.shader_cores0.data      5347484                       # Total bandwidth to/from this memory (bytes/s)
system.ruby.phys_mem.bw_total::gpu.shader_cores0.inst        32344                       # Total bandwidth to/from this memory (bytes/s)
system.ruby.phys_mem.bw_total::gpu.shader_cores1.data      5404984                       # Total bandwidth to/from this memory (bytes/s)
system.ruby.phys_mem.bw_total::gpu.shader_cores1.inst        35039                       # Total bandwidth to/from this memory (bytes/s)
system.ruby.phys_mem.bw_total::gpu.shader_cores2.data      5347484                       # Total bandwidth to/from this memory (bytes/s)
system.ruby.phys_mem.bw_total::gpu.shader_cores2.inst        32344                       # Total bandwidth to/from this memory (bytes/s)
system.ruby.phys_mem.bw_total::gpu.shader_cores3.data      5318734                       # Total bandwidth to/from this memory (bytes/s)
system.ruby.phys_mem.bw_total::gpu.shader_cores3.inst        32344                       # Total bandwidth to/from this memory (bytes/s)
system.ruby.phys_mem.bw_total::total       7459030645                       # Total bandwidth to/from this memory (bytes/s)
system.cpu_voltage_domain.voltage                   1                       # Voltage in Volts
system.cpu_clk_domain.clock                       500                       # Clock period in ticks
system.cpu.apic_clk_domain.clock                 8000                       # Clock period in ticks
system.cpu.workload.num_syscalls                   44                       # Number of system calls
system.cpu.numCycles                         17808750                       # number of cpu cycles simulated
system.cpu.numWorkItemsStarted                      1                       # number of work items this cpu started
system.cpu.numWorkItemsCompleted                    1                       # number of work items this cpu completed
system.cpu.committedInsts                     4946444                       # Number of instructions committed
system.cpu.committedOps                       9450604                       # Number of ops (including micro ops) committed
system.cpu.num_int_alu_accesses               9303231                       # Number of integer alu accesses
system.cpu.num_fp_alu_accesses                 212669                       # Number of float alu accesses
system.cpu.num_func_calls                      196214                       # number of times a function call or return occured
system.cpu.num_conditional_control_insts       810141                       # number of instructions that are conditional controls
system.cpu.num_int_insts                      9303231                       # number of integer instructions
system.cpu.num_fp_insts                        212669                       # number of float instructions
system.cpu.num_int_register_reads            17826802                       # number of times the integer registers were read
system.cpu.num_int_register_writes            7438182                       # number of times the integer registers were written
system.cpu.num_fp_register_reads               283204                       # number of times the floating registers were read
system.cpu.num_fp_register_writes              145430                       # number of times the floating registers were written
system.cpu.num_cc_register_reads              5491224                       # number of times the CC registers were read
system.cpu.num_cc_register_writes             3235525                       # number of times the CC registers were written
system.cpu.num_mem_refs                       2081078                       # number of memory refs
system.cpu.num_load_insts                     1295108                       # Number of load instructions
system.cpu.num_store_insts                     785970                       # Number of store instructions
system.cpu.num_idle_cycles               85123.741990                       # Number of idle cycles
system.cpu.num_busy_cycles               17723626.258010                       # Number of busy cycles
system.cpu.not_idle_fraction                 0.995220                       # Percentage of non-idle cycles
system.cpu.idle_fraction                     0.004780                       # Percentage of idle cycles
system.cpu.Branches                           1085852                       # Number of branches fetched
system.cpu.op_class::No_OpClass                 34947      0.37%      0.37% # Class of executed instruction
system.cpu.op_class::IntAlu                   7182236     76.00%     76.37% # Class of executed instruction
system.cpu.op_class::IntMult                    20875      0.22%     76.59% # Class of executed instruction
system.cpu.op_class::IntDiv                       370      0.00%     76.59% # Class of executed instruction
system.cpu.op_class::FloatAdd                  131098      1.39%     77.98% # Class of executed instruction
system.cpu.op_class::FloatCmp                       0      0.00%     77.98% # Class of executed instruction
system.cpu.op_class::FloatCvt                       0      0.00%     77.98% # Class of executed instruction
system.cpu.op_class::FloatMult                      0      0.00%     77.98% # Class of executed instruction
system.cpu.op_class::FloatDiv                       0      0.00%     77.98% # Class of executed instruction
system.cpu.op_class::FloatSqrt                      0      0.00%     77.98% # Class of executed instruction
system.cpu.op_class::SimdAdd                        0      0.00%     77.98% # Class of executed instruction
system.cpu.op_class::SimdAddAcc                     0      0.00%     77.98% # Class of executed instruction
system.cpu.op_class::SimdAlu                        0      0.00%     77.98% # Class of executed instruction
system.cpu.op_class::SimdCmp                        0      0.00%     77.98% # Class of executed instruction
system.cpu.op_class::SimdCvt                        0      0.00%     77.98% # Class of executed instruction
system.cpu.op_class::SimdMisc                       0      0.00%     77.98% # Class of executed instruction
system.cpu.op_class::SimdMult                       0      0.00%     77.98% # Class of executed instruction
system.cpu.op_class::SimdMultAcc                    0      0.00%     77.98% # Class of executed instruction
system.cpu.op_class::SimdShift                      0      0.00%     77.98% # Class of executed instruction
system.cpu.op_class::SimdShiftAcc                   0      0.00%     77.98% # Class of executed instruction
system.cpu.op_class::SimdSqrt                       0      0.00%     77.98% # Class of executed instruction
system.cpu.op_class::SimdFloatAdd                   0      0.00%     77.98% # Class of executed instruction
system.cpu.op_class::SimdFloatAlu                   0      0.00%     77.98% # Class of executed instruction
system.cpu.op_class::SimdFloatCmp                   0      0.00%     77.98% # Class of executed instruction
system.cpu.op_class::SimdFloatCvt                   0      0.00%     77.98% # Class of executed instruction
system.cpu.op_class::SimdFloatDiv                   0      0.00%     77.98% # Class of executed instruction
system.cpu.op_class::SimdFloatMisc                  0      0.00%     77.98% # Class of executed instruction
system.cpu.op_class::SimdFloatMult                  0      0.00%     77.98% # Class of executed instruction
system.cpu.op_class::SimdFloatMultAcc               0      0.00%     77.98% # Class of executed instruction
system.cpu.op_class::SimdFloatSqrt                  0      0.00%     77.98% # Class of executed instruction
system.cpu.op_class::MemRead                  1295108     13.70%     91.68% # Class of executed instruction
system.cpu.op_class::MemWrite                  785970      8.32%    100.00% # Class of executed instruction
system.cpu.op_class::IprAccess                      0      0.00%    100.00% # Class of executed instruction
system.cpu.op_class::InstPrefetch                   0      0.00%    100.00% # Class of executed instruction
system.cpu.op_class::total                    9450604                       # Class of executed instruction
system.gpu.clk_domain.voltage_domain.voltage            1                       # Voltage in Volts
system.gpu.clk_domain.clock                      1429                       # Clock period in ticks
system.gpu.dram_wrapper.clk_domain.clock          541                       # Clock period in ticks
system.gpu.icnt_wrapper.clk_domain.clock         2858                       # Clock period in ticks
system.ruby.outstanding_req_hist::bucket_size            8                      
system.ruby.outstanding_req_hist::max_bucket           79                      
system.ruby.outstanding_req_hist::samples      8731718                      
system.ruby.outstanding_req_hist::mean       1.005507                      
system.ruby.outstanding_req_hist::gmean      1.000742                      
system.ruby.outstanding_req_hist::stdev      0.455645                      
system.ruby.outstanding_req_hist         |     8730060     99.98%     99.98% |         444      0.01%     99.99% |         443      0.01%     99.99% |         291      0.00%     99.99% |         116      0.00%    100.00% |          41      0.00%    100.00% |          44      0.00%    100.00% |          53      0.00%    100.00% |         226      0.00%    100.00% |           0      0.00%    100.00%
system.ruby.outstanding_req_hist::total       8731718                      
system.ruby.latency_hist::bucket_size             512                      
system.ruby.latency_hist::max_bucket             5119                      
system.ruby.latency_hist::samples             8731718                      
system.ruby.latency_hist::mean               1.132295                      
system.ruby.latency_hist::gmean              1.003515                      
system.ruby.latency_hist::stdev              9.799398                      
system.ruby.latency_hist                 |     8731020     99.99%     99.99% |         438      0.01%    100.00% |         222      0.00%    100.00% |          28      0.00%    100.00% |           6      0.00%    100.00% |           3      0.00%    100.00% |           1      0.00%    100.00% |           0      0.00%    100.00% |           0      0.00%    100.00% |           0      0.00%    100.00%
system.ruby.latency_hist::total               8731718                      
system.ruby.hit_latency_hist::bucket_size            2                      
system.ruby.hit_latency_hist::max_bucket           19                      
system.ruby.hit_latency_hist::samples         8728494                      
system.ruby.hit_latency_hist::mean           1.006333                      
system.ruby.hit_latency_hist::gmean          1.001520                      
system.ruby.hit_latency_hist::stdev          0.251580                      
system.ruby.hit_latency_hist             |     8722966     99.94%     99.94% |           0      0.00%     99.94% |           0      0.00%     99.94% |           0      0.00%     99.94% |           0      0.00%     99.94% |        5528      0.06%    100.00% |           0      0.00%    100.00% |           0      0.00%    100.00% |           0      0.00%    100.00% |           0      0.00%    100.00%
system.ruby.hit_latency_hist::total           8728494                      
system.ruby.miss_latency_hist::bucket_size          512                      
system.ruby.miss_latency_hist::max_bucket         5119                      
system.ruby.miss_latency_hist::samples           3224                      
system.ruby.miss_latency_hist::mean        342.155087                      
system.ruby.miss_latency_hist::gmean       219.487203                      
system.ruby.miss_latency_hist::stdev       378.961184                      
system.ruby.miss_latency_hist            |        2526     78.35%     78.35% |         438     13.59%     91.94% |         222      6.89%     98.82% |          28      0.87%     99.69% |           6      0.19%     99.88% |           3      0.09%     99.97% |           1      0.03%    100.00% |           0      0.00%    100.00% |           0      0.00%    100.00% |           0      0.00%    100.00%
system.ruby.miss_latency_hist::total             3224                      
system.ruby.L1Cache.incomplete_times               28                      
system.gpu.shader_mmu.numPagefaults                 0                       # Number of Pagefaults
system.gpu.shader_mmu.numPagewalks                174                       # Number of Pagewalks
system.gpu.shader_mmu.totalRequests               174                       # Total number of requests
system.gpu.shader_mmu.l2hits                        0                       # Hits in the shared L2
system.gpu.shader_mmu.prefetchHits                  0                       # Number of prefetch hits
system.gpu.shader_mmu.numPrefetches                 0                       # Number of prefetchs
system.gpu.shader_mmu.prefetchFaults                0                       # Number of faults caused by prefetches
system.gpu.shader_mmu.pagefaultLatency::samples            0                       # Latency to complete the pagefault
system.gpu.shader_mmu.pagefaultLatency::mean          nan                       # Latency to complete the pagefault
system.gpu.shader_mmu.pagefaultLatency::gmean          nan                       # Latency to complete the pagefault
system.gpu.shader_mmu.pagefaultLatency::stdev          nan                       # Latency to complete the pagefault
system.gpu.shader_mmu.pagefaultLatency::0            0                       # Latency to complete the pagefault
system.gpu.shader_mmu.pagefaultLatency::1            0                       # Latency to complete the pagefault
system.gpu.shader_mmu.pagefaultLatency::2            0                       # Latency to complete the pagefault
system.gpu.shader_mmu.pagefaultLatency::3            0                       # Latency to complete the pagefault
system.gpu.shader_mmu.pagefaultLatency::4            0                       # Latency to complete the pagefault
system.gpu.shader_mmu.pagefaultLatency::5            0                       # Latency to complete the pagefault
system.gpu.shader_mmu.pagefaultLatency::6            0                       # Latency to complete the pagefault
system.gpu.shader_mmu.pagefaultLatency::7            0                       # Latency to complete the pagefault
system.gpu.shader_mmu.pagefaultLatency::8            0                       # Latency to complete the pagefault
system.gpu.shader_mmu.pagefaultLatency::9            0                       # Latency to complete the pagefault
system.gpu.shader_mmu.pagefaultLatency::10            0                       # Latency to complete the pagefault
system.gpu.shader_mmu.pagefaultLatency::11            0                       # Latency to complete the pagefault
system.gpu.shader_mmu.pagefaultLatency::12            0                       # Latency to complete the pagefault
system.gpu.shader_mmu.pagefaultLatency::13            0                       # Latency to complete the pagefault
system.gpu.shader_mmu.pagefaultLatency::14            0                       # Latency to complete the pagefault
system.gpu.shader_mmu.pagefaultLatency::15            0                       # Latency to complete the pagefault
system.gpu.shader_mmu.pagefaultLatency::16            0                       # Latency to complete the pagefault
system.gpu.shader_mmu.pagefaultLatency::17            0                       # Latency to complete the pagefault
system.gpu.shader_mmu.pagefaultLatency::18            0                       # Latency to complete the pagefault
system.gpu.shader_mmu.pagefaultLatency::19            0                       # Latency to complete the pagefault
system.gpu.shader_mmu.pagefaultLatency::20            0                       # Latency to complete the pagefault
system.gpu.shader_mmu.pagefaultLatency::21            0                       # Latency to complete the pagefault
system.gpu.shader_mmu.pagefaultLatency::22            0                       # Latency to complete the pagefault
system.gpu.shader_mmu.pagefaultLatency::23            0                       # Latency to complete the pagefault
system.gpu.shader_mmu.pagefaultLatency::24            0                       # Latency to complete the pagefault
system.gpu.shader_mmu.pagefaultLatency::25            0                       # Latency to complete the pagefault
system.gpu.shader_mmu.pagefaultLatency::26            0                       # Latency to complete the pagefault
system.gpu.shader_mmu.pagefaultLatency::27            0                       # Latency to complete the pagefault
system.gpu.shader_mmu.pagefaultLatency::28            0                       # Latency to complete the pagefault
system.gpu.shader_mmu.pagefaultLatency::29            0                       # Latency to complete the pagefault
system.gpu.shader_mmu.pagefaultLatency::30            0                       # Latency to complete the pagefault
system.gpu.shader_mmu.pagefaultLatency::31            0                       # Latency to complete the pagefault
system.gpu.shader_mmu.pagefaultLatency::total            0                       # Latency to complete the pagefault
system.gpu.shader_mmu.concurrentWalks::samples          174                       # Number of outstanding walks
system.gpu.shader_mmu.concurrentWalks::mean            0                       # Number of outstanding walks
system.gpu.shader_mmu.concurrentWalks::gmean            0                       # Number of outstanding walks
system.gpu.shader_mmu.concurrentWalks::stdev            0                       # Number of outstanding walks
system.gpu.shader_mmu.concurrentWalks::0          174    100.00%    100.00% # Number of outstanding walks
system.gpu.shader_mmu.concurrentWalks::1            0      0.00%    100.00% # Number of outstanding walks
system.gpu.shader_mmu.concurrentWalks::2            0      0.00%    100.00% # Number of outstanding walks
system.gpu.shader_mmu.concurrentWalks::3            0      0.00%    100.00% # Number of outstanding walks
system.gpu.shader_mmu.concurrentWalks::4            0      0.00%    100.00% # Number of outstanding walks
system.gpu.shader_mmu.concurrentWalks::5            0      0.00%    100.00% # Number of outstanding walks
system.gpu.shader_mmu.concurrentWalks::6            0      0.00%    100.00% # Number of outstanding walks
system.gpu.shader_mmu.concurrentWalks::7            0      0.00%    100.00% # Number of outstanding walks
system.gpu.shader_mmu.concurrentWalks::8            0      0.00%    100.00% # Number of outstanding walks
system.gpu.shader_mmu.concurrentWalks::9            0      0.00%    100.00% # Number of outstanding walks
system.gpu.shader_mmu.concurrentWalks::10            0      0.00%    100.00% # Number of outstanding walks
system.gpu.shader_mmu.concurrentWalks::11            0      0.00%    100.00% # Number of outstanding walks
system.gpu.shader_mmu.concurrentWalks::12            0      0.00%    100.00% # Number of outstanding walks
system.gpu.shader_mmu.concurrentWalks::13            0      0.00%    100.00% # Number of outstanding walks
system.gpu.shader_mmu.concurrentWalks::14            0      0.00%    100.00% # Number of outstanding walks
system.gpu.shader_mmu.concurrentWalks::15            0      0.00%    100.00% # Number of outstanding walks
system.gpu.shader_mmu.concurrentWalks::total          174                       # Number of outstanding walks
system.gpu.shader_mmu.pagewalkLatency::samples          174                       # Latency to complete the pagewalk
system.gpu.shader_mmu.pagewalkLatency::mean            0                       # Latency to complete the pagewalk
system.gpu.shader_mmu.pagewalkLatency::gmean            0                       # Latency to complete the pagewalk
system.gpu.shader_mmu.pagewalkLatency::stdev            0                       # Latency to complete the pagewalk
system.gpu.shader_mmu.pagewalkLatency::0          174    100.00%    100.00% # Latency to complete the pagewalk
system.gpu.shader_mmu.pagewalkLatency::1            0      0.00%    100.00% # Latency to complete the pagewalk
system.gpu.shader_mmu.pagewalkLatency::2            0      0.00%    100.00% # Latency to complete the pagewalk
system.gpu.shader_mmu.pagewalkLatency::3            0      0.00%    100.00% # Latency to complete the pagewalk
system.gpu.shader_mmu.pagewalkLatency::4            0      0.00%    100.00% # Latency to complete the pagewalk
system.gpu.shader_mmu.pagewalkLatency::5            0      0.00%    100.00% # Latency to complete the pagewalk
system.gpu.shader_mmu.pagewalkLatency::6            0      0.00%    100.00% # Latency to complete the pagewalk
system.gpu.shader_mmu.pagewalkLatency::7            0      0.00%    100.00% # Latency to complete the pagewalk
system.gpu.shader_mmu.pagewalkLatency::8            0      0.00%    100.00% # Latency to complete the pagewalk
system.gpu.shader_mmu.pagewalkLatency::9            0      0.00%    100.00% # Latency to complete the pagewalk
system.gpu.shader_mmu.pagewalkLatency::10            0      0.00%    100.00% # Latency to complete the pagewalk
system.gpu.shader_mmu.pagewalkLatency::11            0      0.00%    100.00% # Latency to complete the pagewalk
system.gpu.shader_mmu.pagewalkLatency::12            0      0.00%    100.00% # Latency to complete the pagewalk
system.gpu.shader_mmu.pagewalkLatency::13            0      0.00%    100.00% # Latency to complete the pagewalk
system.gpu.shader_mmu.pagewalkLatency::14            0      0.00%    100.00% # Latency to complete the pagewalk
system.gpu.shader_mmu.pagewalkLatency::15            0      0.00%    100.00% # Latency to complete the pagewalk
system.gpu.shader_mmu.pagewalkLatency::16            0      0.00%    100.00% # Latency to complete the pagewalk
system.gpu.shader_mmu.pagewalkLatency::17            0      0.00%    100.00% # Latency to complete the pagewalk
system.gpu.shader_mmu.pagewalkLatency::18            0      0.00%    100.00% # Latency to complete the pagewalk
system.gpu.shader_mmu.pagewalkLatency::19            0      0.00%    100.00% # Latency to complete the pagewalk
system.gpu.shader_mmu.pagewalkLatency::20            0      0.00%    100.00% # Latency to complete the pagewalk
system.gpu.shader_mmu.pagewalkLatency::21            0      0.00%    100.00% # Latency to complete the pagewalk
system.gpu.shader_mmu.pagewalkLatency::22            0      0.00%    100.00% # Latency to complete the pagewalk
system.gpu.shader_mmu.pagewalkLatency::23            0      0.00%    100.00% # Latency to complete the pagewalk
system.gpu.shader_mmu.pagewalkLatency::24            0      0.00%    100.00% # Latency to complete the pagewalk
system.gpu.shader_mmu.pagewalkLatency::25            0      0.00%    100.00% # Latency to complete the pagewalk
system.gpu.shader_mmu.pagewalkLatency::26            0      0.00%    100.00% # Latency to complete the pagewalk
system.gpu.shader_mmu.pagewalkLatency::27            0      0.00%    100.00% # Latency to complete the pagewalk
system.gpu.shader_mmu.pagewalkLatency::28            0      0.00%    100.00% # Latency to complete the pagewalk
system.gpu.shader_mmu.pagewalkLatency::29            0      0.00%    100.00% # Latency to complete the pagewalk
system.gpu.shader_mmu.pagewalkLatency::30            0      0.00%    100.00% # Latency to complete the pagewalk
system.gpu.shader_mmu.pagewalkLatency::31            0      0.00%    100.00% # Latency to complete the pagewalk
system.gpu.shader_mmu.pagewalkLatency::total          174                       # Latency to complete the pagewalk
system.gpu.kernels_started                          2                       # Number of kernels started
system.gpu.kernels_completed                        2                       # Number of kernels completed
system.gpu.ce.device_dtb.hits                       0                       # Number of hits in this TLB
system.gpu.ce.device_dtb.misses                     0                       # Number of misses in this TLB
system.gpu.ce.device_dtb.hitRate                  nan                       # Hit rate for this TLB
system.gpu.ce.host_dtb.hits                       404                       # Number of hits in this TLB
system.gpu.ce.host_dtb.misses                     174                       # Number of misses in this TLB
system.gpu.ce.host_dtb.hitRate               0.698962                       # Hit rate for this TLB
system.gpu.shader_cores0.itb.hits                   0                       # Number of hits in this TLB
system.gpu.shader_cores0.itb.misses                 0                       # Number of misses in this TLB
system.gpu.shader_cores0.itb.hitRate              nan                       # Hit rate for this TLB
system.gpu.shader_cores0.local_loads                0                       # Number of loads from local space
system.gpu.shader_cores0.local_stores               0                       # Number of stores to local space
system.gpu.shader_cores0.shared_loads            5056                       # Number of loads from shared space
system.gpu.shader_cores0.shared_stores           3072                       # Number of stores to shared space
system.gpu.shader_cores0.param_kernel_loads         7296                       # Number of loads from kernel parameter space
system.gpu.shader_cores0.param_local_loads            0                       # Number of loads from local parameter space
system.gpu.shader_cores0.param_local_stores            0                       # Number of stores to local parameter space
system.gpu.shader_cores0.const_loads                0                       # Number of loads from constant space
system.gpu.shader_cores0.tex_loads                  0                       # Number of loads from texture space
system.gpu.shader_cores0.global_loads            8256                       # Number of loads from global space
system.gpu.shader_cores0.global_stores           3136                       # Number of stores to global space
system.gpu.shader_cores0.surf_loads                 0                       # Number of loads from surface space
system.gpu.shader_cores0.generic_loads              0                       # Number of loads from generic spaces (global, shared, local)
system.gpu.shader_cores0.generic_stores             0                       # Number of stores to generic spaces (global, shared, local)
system.gpu.shader_cores0.inst_cache_requests           12                       # Number of instruction cache requests sent
system.gpu.shader_cores0.inst_cache_retries            0                       # Number of instruction cache retries
system.gpu.shader_cores0.inst_counts::0             0                       # Inst counts: 1: ALU, 2: MAD, 3: CTRL, 4: SFU, 5: MEM, 6: TEX, 7: NOP
system.gpu.shader_cores0.inst_counts::1        130176                       # Inst counts: 1: ALU, 2: MAD, 3: CTRL, 4: SFU, 5: MEM, 6: TEX, 7: NOP
system.gpu.shader_cores0.inst_counts::2          2048                       # Inst counts: 1: ALU, 2: MAD, 3: CTRL, 4: SFU, 5: MEM, 6: TEX, 7: NOP
system.gpu.shader_cores0.inst_counts::3         20416                       # Inst counts: 1: ALU, 2: MAD, 3: CTRL, 4: SFU, 5: MEM, 6: TEX, 7: NOP
system.gpu.shader_cores0.inst_counts::4          6144                       # Inst counts: 1: ALU, 2: MAD, 3: CTRL, 4: SFU, 5: MEM, 6: TEX, 7: NOP
system.gpu.shader_cores0.inst_counts::5         26816                       # Inst counts: 1: ALU, 2: MAD, 3: CTRL, 4: SFU, 5: MEM, 6: TEX, 7: NOP
system.gpu.shader_cores0.inst_counts::6             0                       # Inst counts: 1: ALU, 2: MAD, 3: CTRL, 4: SFU, 5: MEM, 6: TEX, 7: NOP
system.gpu.shader_cores0.inst_counts::7             0                       # Inst counts: 1: ALU, 2: MAD, 3: CTRL, 4: SFU, 5: MEM, 6: TEX, 7: NOP
system.gpu.shader_cores0.activeCycles            6414                       # Number of cycles this shader was executing a CTA
system.gpu.shader_cores0.notStalledCycles         4655                       # Number of cycles this shader was actually executing at least one instance
system.gpu.shader_cores0.instInstances         185600                       # Total instructions executed by all PEs in the core
system.gpu.shader_cores0.instPerCycle       28.936701                       # Instruction instances per cycle
system.gpu.shader_cores0.kernels_completed            2                       # Number of kernels completed
system.gpu.shader_cores0.lsq.data_tlb.hits            0                       # Number of hits in this TLB
system.gpu.shader_cores0.lsq.data_tlb.misses            0                       # Number of misses in this TLB
system.gpu.shader_cores0.lsq.data_tlb.hitRate          nan                       # Hit rate for this TLB
system.gpu.shader_cores0.lsq.warpInstBufActive::samples      7943811                       # Histogram of number of active warp inst buffers at a given time
system.gpu.shader_cores0.lsq.warpInstBufActive::mean     7.124123                       # Histogram of number of active warp inst buffers at a given time
system.gpu.shader_cores0.lsq.warpInstBufActive::gmean          nan                       # Histogram of number of active warp inst buffers at a given time
system.gpu.shader_cores0.lsq.warpInstBufActive::stdev    10.120807                       # Histogram of number of active warp inst buffers at a given time
system.gpu.shader_cores0.lsq.warpInstBufActive::0      2980894     37.52%     37.52% # Histogram of number of active warp inst buffers at a given time
system.gpu.shader_cores0.lsq.warpInstBufActive::1       963146     12.12%     49.65% # Histogram of number of active warp inst buffers at a given time
system.gpu.shader_cores0.lsq.warpInstBufActive::2       503008      6.33%     55.98% # Histogram of number of active warp inst buffers at a given time
system.gpu.shader_cores0.lsq.warpInstBufActive::3       232927      2.93%     58.91% # Histogram of number of active warp inst buffers at a given time
system.gpu.shader_cores0.lsq.warpInstBufActive::4       250075      3.15%     62.06% # Histogram of number of active warp inst buffers at a given time
system.gpu.shader_cores0.lsq.warpInstBufActive::5       161477      2.03%     64.09% # Histogram of number of active warp inst buffers at a given time
system.gpu.shader_cores0.lsq.warpInstBufActive::6       132897      1.67%     65.77% # Histogram of number of active warp inst buffers at a given time
system.gpu.shader_cores0.lsq.warpInstBufActive::7       160048      2.01%     67.78% # Histogram of number of active warp inst buffers at a given time
system.gpu.shader_cores0.lsq.warpInstBufActive::8       252933      3.18%     70.97% # Histogram of number of active warp inst buffers at a given time
system.gpu.shader_cores0.lsq.warpInstBufActive::9       197202      2.48%     73.45% # Histogram of number of active warp inst buffers at a given time
system.gpu.shader_cores0.lsq.warpInstBufActive::10        97172      1.22%     74.67% # Histogram of number of active warp inst buffers at a given time
system.gpu.shader_cores0.lsq.warpInstBufActive::11       102888      1.30%     75.97% # Histogram of number of active warp inst buffers at a given time
system.gpu.shader_cores0.lsq.warpInstBufActive::12       145758      1.83%     77.80% # Histogram of number of active warp inst buffers at a given time
system.gpu.shader_cores0.lsq.warpInstBufActive::13       102888      1.30%     79.10% # Histogram of number of active warp inst buffers at a given time
system.gpu.shader_cores0.lsq.warpInstBufActive::14       127181      1.60%     80.70% # Histogram of number of active warp inst buffers at a given time
system.gpu.shader_cores0.lsq.warpInstBufActive::15        71450      0.90%     81.60% # Histogram of number of active warp inst buffers at a given time
system.gpu.shader_cores0.lsq.warpInstBufActive::16        72879      0.92%     82.51% # Histogram of number of active warp inst buffers at a given time
system.gpu.shader_cores0.lsq.warpInstBufActive::17       165764      2.09%     84.60% # Histogram of number of active warp inst buffers at a given time
system.gpu.shader_cores0.lsq.warpInstBufActive::18        57160      0.72%     85.32% # Histogram of number of active warp inst buffers at a given time
system.gpu.shader_cores0.lsq.warpInstBufActive::19        37154      0.47%     85.79% # Histogram of number of active warp inst buffers at a given time
system.gpu.shader_cores0.lsq.warpInstBufActive::20        44299      0.56%     86.35% # Histogram of number of active warp inst buffers at a given time
system.gpu.shader_cores0.lsq.warpInstBufActive::21        22864      0.29%     86.63% # Histogram of number of active warp inst buffers at a given time
system.gpu.shader_cores0.lsq.warpInstBufActive::22        24293      0.31%     86.94% # Histogram of number of active warp inst buffers at a given time
system.gpu.shader_cores0.lsq.warpInstBufActive::23        52873      0.67%     87.61% # Histogram of number of active warp inst buffers at a given time
system.gpu.shader_cores0.lsq.warpInstBufActive::24        57160      0.72%     88.33% # Histogram of number of active warp inst buffers at a given time
system.gpu.shader_cores0.lsq.warpInstBufActive::25        45728      0.58%     88.90% # Histogram of number of active warp inst buffers at a given time
system.gpu.shader_cores0.lsq.warpInstBufActive::26        37154      0.47%     89.37% # Histogram of number of active warp inst buffers at a given time
system.gpu.shader_cores0.lsq.warpInstBufActive::27        37154      0.47%     89.84% # Histogram of number of active warp inst buffers at a given time
system.gpu.shader_cores0.lsq.warpInstBufActive::28        34296      0.43%     90.27% # Histogram of number of active warp inst buffers at a given time
system.gpu.shader_cores0.lsq.warpInstBufActive::29        78595      0.99%     91.26% # Histogram of number of active warp inst buffers at a given time
system.gpu.shader_cores0.lsq.warpInstBufActive::30       138613      1.74%     93.00% # Histogram of number of active warp inst buffers at a given time
system.gpu.shader_cores0.lsq.warpInstBufActive::31       147187      1.85%     94.86% # Histogram of number of active warp inst buffers at a given time
system.gpu.shader_cores0.lsq.warpInstBufActive::32       408694      5.14%    100.00% # Histogram of number of active warp inst buffers at a given time
system.gpu.shader_cores0.lsq.warpInstBufActive::33            0      0.00%    100.00% # Histogram of number of active warp inst buffers at a given time
system.gpu.shader_cores0.lsq.warpInstBufActive::34            0      0.00%    100.00% # Histogram of number of active warp inst buffers at a given time
system.gpu.shader_cores0.lsq.warpInstBufActive::35            0      0.00%    100.00% # Histogram of number of active warp inst buffers at a given time
system.gpu.shader_cores0.lsq.warpInstBufActive::36            0      0.00%    100.00% # Histogram of number of active warp inst buffers at a given time
system.gpu.shader_cores0.lsq.warpInstBufActive::37            0      0.00%    100.00% # Histogram of number of active warp inst buffers at a given time
system.gpu.shader_cores0.lsq.warpInstBufActive::38            0      0.00%    100.00% # Histogram of number of active warp inst buffers at a given time
system.gpu.shader_cores0.lsq.warpInstBufActive::39            0      0.00%    100.00% # Histogram of number of active warp inst buffers at a given time
system.gpu.shader_cores0.lsq.warpInstBufActive::40            0      0.00%    100.00% # Histogram of number of active warp inst buffers at a given time
system.gpu.shader_cores0.lsq.warpInstBufActive::41            0      0.00%    100.00% # Histogram of number of active warp inst buffers at a given time
system.gpu.shader_cores0.lsq.warpInstBufActive::42            0      0.00%    100.00% # Histogram of number of active warp inst buffers at a given time
system.gpu.shader_cores0.lsq.warpInstBufActive::43            0      0.00%    100.00% # Histogram of number of active warp inst buffers at a given time
system.gpu.shader_cores0.lsq.warpInstBufActive::44            0      0.00%    100.00% # Histogram of number of active warp inst buffers at a given time
system.gpu.shader_cores0.lsq.warpInstBufActive::45            0      0.00%    100.00% # Histogram of number of active warp inst buffers at a given time
system.gpu.shader_cores0.lsq.warpInstBufActive::46            0      0.00%    100.00% # Histogram of number of active warp inst buffers at a given time
system.gpu.shader_cores0.lsq.warpInstBufActive::47            0      0.00%    100.00% # Histogram of number of active warp inst buffers at a given time
system.gpu.shader_cores0.lsq.warpInstBufActive::48            0      0.00%    100.00% # Histogram of number of active warp inst buffers at a given time
system.gpu.shader_cores0.lsq.warpInstBufActive::49            0      0.00%    100.00% # Histogram of number of active warp inst buffers at a given time
system.gpu.shader_cores0.lsq.warpInstBufActive::50            0      0.00%    100.00% # Histogram of number of active warp inst buffers at a given time
system.gpu.shader_cores0.lsq.warpInstBufActive::51            0      0.00%    100.00% # Histogram of number of active warp inst buffers at a given time
system.gpu.shader_cores0.lsq.warpInstBufActive::52            0      0.00%    100.00% # Histogram of number of active warp inst buffers at a given time
system.gpu.shader_cores0.lsq.warpInstBufActive::53            0      0.00%    100.00% # Histogram of number of active warp inst buffers at a given time
system.gpu.shader_cores0.lsq.warpInstBufActive::54            0      0.00%    100.00% # Histogram of number of active warp inst buffers at a given time
system.gpu.shader_cores0.lsq.warpInstBufActive::55            0      0.00%    100.00% # Histogram of number of active warp inst buffers at a given time
system.gpu.shader_cores0.lsq.warpInstBufActive::56            0      0.00%    100.00% # Histogram of number of active warp inst buffers at a given time
system.gpu.shader_cores0.lsq.warpInstBufActive::57            0      0.00%    100.00% # Histogram of number of active warp inst buffers at a given time
system.gpu.shader_cores0.lsq.warpInstBufActive::58            0      0.00%    100.00% # Histogram of number of active warp inst buffers at a given time
system.gpu.shader_cores0.lsq.warpInstBufActive::59            0      0.00%    100.00% # Histogram of number of active warp inst buffers at a given time
system.gpu.shader_cores0.lsq.warpInstBufActive::60            0      0.00%    100.00% # Histogram of number of active warp inst buffers at a given time
system.gpu.shader_cores0.lsq.warpInstBufActive::61            0      0.00%    100.00% # Histogram of number of active warp inst buffers at a given time
system.gpu.shader_cores0.lsq.warpInstBufActive::62            0      0.00%    100.00% # Histogram of number of active warp inst buffers at a given time
system.gpu.shader_cores0.lsq.warpInstBufActive::63            0      0.00%    100.00% # Histogram of number of active warp inst buffers at a given time
system.gpu.shader_cores0.lsq.warpInstBufActive::64            0      0.00%    100.00% # Histogram of number of active warp inst buffers at a given time
system.gpu.shader_cores0.lsq.warpInstBufActive::total      7943811                       # Histogram of number of active warp inst buffers at a given time
system.gpu.shader_cores0.lsq.cacheAccesses     0.003297                       # Average number of concurrent outstanding cache accesses
system.gpu.shader_cores0.lsq.writebackBlockedCycles          107                       # Number of cycles blocked for core writeback stage
system.gpu.shader_cores0.lsq.mshrHitQueued          169                       # Number of hits on blocked lines in MSHRs
system.gpu.shader_cores0.lsq.mshrsFullCycles            0                       # Number of cycles stalled waiting for an MSHR
system.gpu.shader_cores0.lsq.mshrsFullCount            0                       # Number of times MSHRs filled
system.gpu.shader_cores0.lsq.warpCoalescedAccesses::samples          416                       # Number of coalesced accesses per warp instruction
system.gpu.shader_cores0.lsq.warpCoalescedAccesses::mean     1.769231                       # Number of coalesced accesses per warp instruction
system.gpu.shader_cores0.lsq.warpCoalescedAccesses::gmean     1.608176                       # Number of coalesced accesses per warp instruction
system.gpu.shader_cores0.lsq.warpCoalescedAccesses::stdev     0.763388                       # Number of coalesced accesses per warp instruction
system.gpu.shader_cores0.lsq.warpCoalescedAccesses::0            0      0.00%      0.00% # Number of coalesced accesses per warp instruction
system.gpu.shader_cores0.lsq.warpCoalescedAccesses::1          180     43.27%     43.27% # Number of coalesced accesses per warp instruction
system.gpu.shader_cores0.lsq.warpCoalescedAccesses::2          152     36.54%     79.81% # Number of coalesced accesses per warp instruction
system.gpu.shader_cores0.lsq.warpCoalescedAccesses::3           84     20.19%    100.00% # Number of coalesced accesses per warp instruction
system.gpu.shader_cores0.lsq.warpCoalescedAccesses::4            0      0.00%    100.00% # Number of coalesced accesses per warp instruction
system.gpu.shader_cores0.lsq.warpCoalescedAccesses::5            0      0.00%    100.00% # Number of coalesced accesses per warp instruction
system.gpu.shader_cores0.lsq.warpCoalescedAccesses::6            0      0.00%    100.00% # Number of coalesced accesses per warp instruction
system.gpu.shader_cores0.lsq.warpCoalescedAccesses::7            0      0.00%    100.00% # Number of coalesced accesses per warp instruction
system.gpu.shader_cores0.lsq.warpCoalescedAccesses::8            0      0.00%    100.00% # Number of coalesced accesses per warp instruction
system.gpu.shader_cores0.lsq.warpCoalescedAccesses::9            0      0.00%    100.00% # Number of coalesced accesses per warp instruction
system.gpu.shader_cores0.lsq.warpCoalescedAccesses::10            0      0.00%    100.00% # Number of coalesced accesses per warp instruction
system.gpu.shader_cores0.lsq.warpCoalescedAccesses::11            0      0.00%    100.00% # Number of coalesced accesses per warp instruction
system.gpu.shader_cores0.lsq.warpCoalescedAccesses::12            0      0.00%    100.00% # Number of coalesced accesses per warp instruction
system.gpu.shader_cores0.lsq.warpCoalescedAccesses::13            0      0.00%    100.00% # Number of coalesced accesses per warp instruction
system.gpu.shader_cores0.lsq.warpCoalescedAccesses::14            0      0.00%    100.00% # Number of coalesced accesses per warp instruction
system.gpu.shader_cores0.lsq.warpCoalescedAccesses::15            0      0.00%    100.00% # Number of coalesced accesses per warp instruction
system.gpu.shader_cores0.lsq.warpCoalescedAccesses::16            0      0.00%    100.00% # Number of coalesced accesses per warp instruction
system.gpu.shader_cores0.lsq.warpCoalescedAccesses::17            0      0.00%    100.00% # Number of coalesced accesses per warp instruction
system.gpu.shader_cores0.lsq.warpCoalescedAccesses::18            0      0.00%    100.00% # Number of coalesced accesses per warp instruction
system.gpu.shader_cores0.lsq.warpCoalescedAccesses::19            0      0.00%    100.00% # Number of coalesced accesses per warp instruction
system.gpu.shader_cores0.lsq.warpCoalescedAccesses::20            0      0.00%    100.00% # Number of coalesced accesses per warp instruction
system.gpu.shader_cores0.lsq.warpCoalescedAccesses::21            0      0.00%    100.00% # Number of coalesced accesses per warp instruction
system.gpu.shader_cores0.lsq.warpCoalescedAccesses::22            0      0.00%    100.00% # Number of coalesced accesses per warp instruction
system.gpu.shader_cores0.lsq.warpCoalescedAccesses::23            0      0.00%    100.00% # Number of coalesced accesses per warp instruction
system.gpu.shader_cores0.lsq.warpCoalescedAccesses::24            0      0.00%    100.00% # Number of coalesced accesses per warp instruction
system.gpu.shader_cores0.lsq.warpCoalescedAccesses::25            0      0.00%    100.00% # Number of coalesced accesses per warp instruction
system.gpu.shader_cores0.lsq.warpCoalescedAccesses::26            0      0.00%    100.00% # Number of coalesced accesses per warp instruction
system.gpu.shader_cores0.lsq.warpCoalescedAccesses::27            0      0.00%    100.00% # Number of coalesced accesses per warp instruction
system.gpu.shader_cores0.lsq.warpCoalescedAccesses::28            0      0.00%    100.00% # Number of coalesced accesses per warp instruction
system.gpu.shader_cores0.lsq.warpCoalescedAccesses::29            0      0.00%    100.00% # Number of coalesced accesses per warp instruction
system.gpu.shader_cores0.lsq.warpCoalescedAccesses::30            0      0.00%    100.00% # Number of coalesced accesses per warp instruction
system.gpu.shader_cores0.lsq.warpCoalescedAccesses::31            0      0.00%    100.00% # Number of coalesced accesses per warp instruction
system.gpu.shader_cores0.lsq.warpCoalescedAccesses::32            0      0.00%    100.00% # Number of coalesced accesses per warp instruction
system.gpu.shader_cores0.lsq.warpCoalescedAccesses::total          416                       # Number of coalesced accesses per warp instruction
system.gpu.shader_cores0.lsq.warpLatencyRead::samples          288                       # Latency in cycles for whole warp to finish the read
system.gpu.shader_cores0.lsq.warpLatencyRead::mean   117.920139                       # Latency in cycles for whole warp to finish the read
system.gpu.shader_cores0.lsq.warpLatencyRead::gmean    51.473922                       # Latency in cycles for whole warp to finish the read
system.gpu.shader_cores0.lsq.warpLatencyRead::stdev   137.165319                       # Latency in cycles for whole warp to finish the read
system.gpu.shader_cores0.lsq.warpLatencyRead::0-31          132     45.83%     45.83% # Latency in cycles for whole warp to finish the read
system.gpu.shader_cores0.lsq.warpLatencyRead::32-63           14      4.86%     50.69% # Latency in cycles for whole warp to finish the read
system.gpu.shader_cores0.lsq.warpLatencyRead::64-95           38     13.19%     63.89% # Latency in cycles for whole warp to finish the read
system.gpu.shader_cores0.lsq.warpLatencyRead::96-127           10      3.47%     67.36% # Latency in cycles for whole warp to finish the read
system.gpu.shader_cores0.lsq.warpLatencyRead::128-159            5      1.74%     69.10% # Latency in cycles for whole warp to finish the read
system.gpu.shader_cores0.lsq.warpLatencyRead::160-191           16      5.56%     74.65% # Latency in cycles for whole warp to finish the read
system.gpu.shader_cores0.lsq.warpLatencyRead::192-223           14      4.86%     79.51% # Latency in cycles for whole warp to finish the read
system.gpu.shader_cores0.lsq.warpLatencyRead::224-255            6      2.08%     81.60% # Latency in cycles for whole warp to finish the read
system.gpu.shader_cores0.lsq.warpLatencyRead::256-287            1      0.35%     81.94% # Latency in cycles for whole warp to finish the read
system.gpu.shader_cores0.lsq.warpLatencyRead::288-319            6      2.08%     84.03% # Latency in cycles for whole warp to finish the read
system.gpu.shader_cores0.lsq.warpLatencyRead::320-351           10      3.47%     87.50% # Latency in cycles for whole warp to finish the read
system.gpu.shader_cores0.lsq.warpLatencyRead::352-383           15      5.21%     92.71% # Latency in cycles for whole warp to finish the read
system.gpu.shader_cores0.lsq.warpLatencyRead::384-415           13      4.51%     97.22% # Latency in cycles for whole warp to finish the read
system.gpu.shader_cores0.lsq.warpLatencyRead::416-447            5      1.74%     98.96% # Latency in cycles for whole warp to finish the read
system.gpu.shader_cores0.lsq.warpLatencyRead::448-479            3      1.04%    100.00% # Latency in cycles for whole warp to finish the read
system.gpu.shader_cores0.lsq.warpLatencyRead::480-511            0      0.00%    100.00% # Latency in cycles for whole warp to finish the read
system.gpu.shader_cores0.lsq.warpLatencyRead::total          288                       # Latency in cycles for whole warp to finish the read
system.gpu.shader_cores0.lsq.warpLatencyWrite::samples          128                       # Latency in cycles for whole warp to finish the write
system.gpu.shader_cores0.lsq.warpLatencyWrite::mean    25.562500                       # Latency in cycles for whole warp to finish the write
system.gpu.shader_cores0.lsq.warpLatencyWrite::gmean    21.406208                       # Latency in cycles for whole warp to finish the write
system.gpu.shader_cores0.lsq.warpLatencyWrite::stdev    16.753305                       # Latency in cycles for whole warp to finish the write
system.gpu.shader_cores0.lsq.warpLatencyWrite::0-7            0      0.00%      0.00% # Latency in cycles for whole warp to finish the write
system.gpu.shader_cores0.lsq.warpLatencyWrite::8-15           64     50.00%     50.00% # Latency in cycles for whole warp to finish the write
system.gpu.shader_cores0.lsq.warpLatencyWrite::16-23           11      8.59%     58.59% # Latency in cycles for whole warp to finish the write
system.gpu.shader_cores0.lsq.warpLatencyWrite::24-31           22     17.19%     75.78% # Latency in cycles for whole warp to finish the write
system.gpu.shader_cores0.lsq.warpLatencyWrite::32-39            4      3.12%     78.91% # Latency in cycles for whole warp to finish the write
system.gpu.shader_cores0.lsq.warpLatencyWrite::40-47            5      3.91%     82.81% # Latency in cycles for whole warp to finish the write
system.gpu.shader_cores0.lsq.warpLatencyWrite::48-55            7      5.47%     88.28% # Latency in cycles for whole warp to finish the write
system.gpu.shader_cores0.lsq.warpLatencyWrite::56-63           14     10.94%     99.22% # Latency in cycles for whole warp to finish the write
system.gpu.shader_cores0.lsq.warpLatencyWrite::64-71            1      0.78%    100.00% # Latency in cycles for whole warp to finish the write
system.gpu.shader_cores0.lsq.warpLatencyWrite::72-79            0      0.00%    100.00% # Latency in cycles for whole warp to finish the write
system.gpu.shader_cores0.lsq.warpLatencyWrite::80-87            0      0.00%    100.00% # Latency in cycles for whole warp to finish the write
system.gpu.shader_cores0.lsq.warpLatencyWrite::88-95            0      0.00%    100.00% # Latency in cycles for whole warp to finish the write
system.gpu.shader_cores0.lsq.warpLatencyWrite::96-103            0      0.00%    100.00% # Latency in cycles for whole warp to finish the write
system.gpu.shader_cores0.lsq.warpLatencyWrite::104-111            0      0.00%    100.00% # Latency in cycles for whole warp to finish the write
system.gpu.shader_cores0.lsq.warpLatencyWrite::112-119            0      0.00%    100.00% # Latency in cycles for whole warp to finish the write
system.gpu.shader_cores0.lsq.warpLatencyWrite::120-127            0      0.00%    100.00% # Latency in cycles for whole warp to finish the write
system.gpu.shader_cores0.lsq.warpLatencyWrite::total          128                       # Latency in cycles for whole warp to finish the write
system.gpu.shader_cores0.lsq.warpLatencyFence::samples          288                       # Latency in cycles for whole warp to finish the fence
system.gpu.shader_cores0.lsq.warpLatencyFence::mean     8.229167                       # Latency in cycles for whole warp to finish the fence
system.gpu.shader_cores0.lsq.warpLatencyFence::gmean     7.429258                       # Latency in cycles for whole warp to finish the fence
system.gpu.shader_cores0.lsq.warpLatencyFence::stdev     4.757856                       # Latency in cycles for whole warp to finish the fence
system.gpu.shader_cores0.lsq.warpLatencyFence::0-3            0      0.00%      0.00% # Latency in cycles for whole warp to finish the fence
system.gpu.shader_cores0.lsq.warpLatencyFence::4-7          220     76.39%     76.39% # Latency in cycles for whole warp to finish the fence
system.gpu.shader_cores0.lsq.warpLatencyFence::8-11            8      2.78%     79.17% # Latency in cycles for whole warp to finish the fence
system.gpu.shader_cores0.lsq.warpLatencyFence::12-15           44     15.28%     94.44% # Latency in cycles for whole warp to finish the fence
system.gpu.shader_cores0.lsq.warpLatencyFence::16-19            5      1.74%     96.18% # Latency in cycles for whole warp to finish the fence
system.gpu.shader_cores0.lsq.warpLatencyFence::20-23            1      0.35%     96.53% # Latency in cycles for whole warp to finish the fence
system.gpu.shader_cores0.lsq.warpLatencyFence::24-27            7      2.43%     98.96% # Latency in cycles for whole warp to finish the fence
system.gpu.shader_cores0.lsq.warpLatencyFence::28-31            2      0.69%     99.65% # Latency in cycles for whole warp to finish the fence
system.gpu.shader_cores0.lsq.warpLatencyFence::32-35            1      0.35%    100.00% # Latency in cycles for whole warp to finish the fence
system.gpu.shader_cores0.lsq.warpLatencyFence::36-39            0      0.00%    100.00% # Latency in cycles for whole warp to finish the fence
system.gpu.shader_cores0.lsq.warpLatencyFence::40-43            0      0.00%    100.00% # Latency in cycles for whole warp to finish the fence
system.gpu.shader_cores0.lsq.warpLatencyFence::44-47            0      0.00%    100.00% # Latency in cycles for whole warp to finish the fence
system.gpu.shader_cores0.lsq.warpLatencyFence::48-51            0      0.00%    100.00% # Latency in cycles for whole warp to finish the fence
system.gpu.shader_cores0.lsq.warpLatencyFence::52-55            0      0.00%    100.00% # Latency in cycles for whole warp to finish the fence
system.gpu.shader_cores0.lsq.warpLatencyFence::56-59            0      0.00%    100.00% # Latency in cycles for whole warp to finish the fence
system.gpu.shader_cores0.lsq.warpLatencyFence::60-63            0      0.00%    100.00% # Latency in cycles for whole warp to finish the fence
system.gpu.shader_cores0.lsq.warpLatencyFence::total          288                       # Latency in cycles for whole warp to finish the fence
system.gpu.shader_cores0.lsq.warpLatencyAtomic::samples            0                       # Latency in cycles for whole warp to finish the atomic
system.gpu.shader_cores0.lsq.warpLatencyAtomic::mean          nan                       # Latency in cycles for whole warp to finish the atomic
system.gpu.shader_cores0.lsq.warpLatencyAtomic::gmean          nan                       # Latency in cycles for whole warp to finish the atomic
system.gpu.shader_cores0.lsq.warpLatencyAtomic::stdev          nan                       # Latency in cycles for whole warp to finish the atomic
system.gpu.shader_cores0.lsq.warpLatencyAtomic::0            0                       # Latency in cycles for whole warp to finish the atomic
system.gpu.shader_cores0.lsq.warpLatencyAtomic::1            0                       # Latency in cycles for whole warp to finish the atomic
system.gpu.shader_cores0.lsq.warpLatencyAtomic::2            0                       # Latency in cycles for whole warp to finish the atomic
system.gpu.shader_cores0.lsq.warpLatencyAtomic::3            0                       # Latency in cycles for whole warp to finish the atomic
system.gpu.shader_cores0.lsq.warpLatencyAtomic::4            0                       # Latency in cycles for whole warp to finish the atomic
system.gpu.shader_cores0.lsq.warpLatencyAtomic::5            0                       # Latency in cycles for whole warp to finish the atomic
system.gpu.shader_cores0.lsq.warpLatencyAtomic::6            0                       # Latency in cycles for whole warp to finish the atomic
system.gpu.shader_cores0.lsq.warpLatencyAtomic::7            0                       # Latency in cycles for whole warp to finish the atomic
system.gpu.shader_cores0.lsq.warpLatencyAtomic::8            0                       # Latency in cycles for whole warp to finish the atomic
system.gpu.shader_cores0.lsq.warpLatencyAtomic::9            0                       # Latency in cycles for whole warp to finish the atomic
system.gpu.shader_cores0.lsq.warpLatencyAtomic::10            0                       # Latency in cycles for whole warp to finish the atomic
system.gpu.shader_cores0.lsq.warpLatencyAtomic::11            0                       # Latency in cycles for whole warp to finish the atomic
system.gpu.shader_cores0.lsq.warpLatencyAtomic::12            0                       # Latency in cycles for whole warp to finish the atomic
system.gpu.shader_cores0.lsq.warpLatencyAtomic::13            0                       # Latency in cycles for whole warp to finish the atomic
system.gpu.shader_cores0.lsq.warpLatencyAtomic::14            0                       # Latency in cycles for whole warp to finish the atomic
system.gpu.shader_cores0.lsq.warpLatencyAtomic::15            0                       # Latency in cycles for whole warp to finish the atomic
system.gpu.shader_cores0.lsq.warpLatencyAtomic::total            0                       # Latency in cycles for whole warp to finish the atomic
system.gpu.shader_cores0.lsq.tlbMissLatency::samples            0                       # Latency in cycles for TLB miss
system.gpu.shader_cores0.lsq.tlbMissLatency::mean          nan                       # Latency in cycles for TLB miss
system.gpu.shader_cores0.lsq.tlbMissLatency::gmean          nan                       # Latency in cycles for TLB miss
system.gpu.shader_cores0.lsq.tlbMissLatency::stdev          nan                       # Latency in cycles for TLB miss
system.gpu.shader_cores0.lsq.tlbMissLatency::0            0                       # Latency in cycles for TLB miss
system.gpu.shader_cores0.lsq.tlbMissLatency::1            0                       # Latency in cycles for TLB miss
system.gpu.shader_cores0.lsq.tlbMissLatency::2            0                       # Latency in cycles for TLB miss
system.gpu.shader_cores0.lsq.tlbMissLatency::3            0                       # Latency in cycles for TLB miss
system.gpu.shader_cores0.lsq.tlbMissLatency::4            0                       # Latency in cycles for TLB miss
system.gpu.shader_cores0.lsq.tlbMissLatency::5            0                       # Latency in cycles for TLB miss
system.gpu.shader_cores0.lsq.tlbMissLatency::6            0                       # Latency in cycles for TLB miss
[...]
system.ruby.L1Cache_Controller.M.L2_Replacement |           0      0.00%      0.00% |           0      0.00%      0.00% |           0      0.00%      0.00% |           0      0.00%      0.00% |           0      0.00%      0.00% |         122     22.63%     22.63% |         417     77.37%    100.00%
system.ruby.L1Cache_Controller.M.L2_Replacement::total          539                      
system.ruby.L1Cache_Controller.M.L1_to_L2 |        5398     90.69%     90.69% |           0      0.00%     90.69% |           0      0.00%     90.69% |           0      0.00%     90.69% |           0      0.00%     90.69% |         137      2.30%     92.99% |         417      7.01%    100.00%
system.ruby.L1Cache_Controller.M.L1_to_L2::total         5952                      
system.ruby.L1Cache_Controller.M.Trigger_L2_to_L1D |          21    100.00%    100.00% |           0      0.00%    100.00% |           0      0.00%    100.00% |           0      0.00%    100.00% |           0      0.00%    100.00% |           0      0.00%    100.00% |           0      0.00%    100.00%
system.ruby.L1Cache_Controller.M.Trigger_L2_to_L1D::total           21                      
system.ruby.L1Cache_Controller.M.Trigger_L2_to_L1I |        5063    100.00%    100.00% |           0      0.00%    100.00% |           0      0.00%    100.00% |           0      0.00%    100.00% |           0      0.00%    100.00% |           0      0.00%    100.00% |           0      0.00%    100.00%
system.ruby.L1Cache_Controller.M.Trigger_L2_to_L1I::total         5063                      
system.ruby.L1Cache_Controller.M.Other_GETX |           5    100.00%    100.00% |           0      0.00%    100.00% |           0      0.00%    100.00% |           0      0.00%    100.00% |           0      0.00%    100.00% |           0      0.00%    100.00% |           0      0.00%    100.00%
system.ruby.L1Cache_Controller.M.Other_GETX::total            5                      
system.ruby.L1Cache_Controller.M.Other_GETS |           5      7.35%      7.35% |          30     44.12%     51.47% |          10     14.71%     66.18% |          13     19.12%     85.29% |          10     14.71%    100.00% |           0      0.00%    100.00% |           0      0.00%    100.00%
system.ruby.L1Cache_Controller.M.Other_GETS::total           68                      
system.ruby.L1Cache_Controller.M.Merged_GETS |           0      0.00%      0.00% |           0      0.00%      0.00% |           1     25.00%     25.00% |           2     50.00%     75.00% |           1     25.00%    100.00% |           0      0.00%    100.00% |           0      0.00%    100.00%
system.ruby.L1Cache_Controller.M.Merged_GETS::total            4                      
system.ruby.L1Cache_Controller.MM.Load   |     1134206     99.99%     99.99% |          18      0.00%    100.00% |          17      0.00%    100.00% |          19      0.00%    100.00% |          16      0.00%    100.00% |           0      0.00%    100.00% |           0      0.00%    100.00%
system.ruby.L1Cache_Controller.MM.Load::total      1134276                      
system.ruby.L1Cache_Controller.MM.Store  |      842245     99.91%     99.91% |         185      0.02%     99.93% |         198      0.02%     99.95% |         186      0.02%     99.98% |         196      0.02%    100.00% |           0      0.00%    100.00% |           0      0.00%    100.00%
system.ruby.L1Cache_Controller.MM.Store::total       843010                      
system.ruby.L1Cache_Controller.MM.L2_Replacement |           0      0.00%      0.00% |           0      0.00%      0.00% |           0      0.00%      0.00% |           0      0.00%      0.00% |           0      0.00%      0.00% |         377     75.40%     75.40% |         123     24.60%    100.00%
system.ruby.L1Cache_Controller.MM.L2_Replacement::total          500                      
system.ruby.L1Cache_Controller.MM.L1_to_L2 |         660     54.82%     54.82% |           0      0.00%     54.82% |           0      0.00%     54.82% |           0      0.00%     54.82% |           0      0.00%     54.82% |         405     33.64%     88.46% |         139     11.54%    100.00%
system.ruby.L1Cache_Controller.MM.L1_to_L2::total         1204                      
system.ruby.L1Cache_Controller.MM.Trigger_L2_to_L1D |         444    100.00%    100.00% |           0      0.00%    100.00% |           0      0.00%    100.00% |           0      0.00%    100.00% |           0      0.00%    100.00% |           0      0.00%    100.00% |           0      0.00%    100.00%
system.ruby.L1Cache_Controller.MM.Trigger_L2_to_L1D::total          444                      
system.ruby.L1Cache_Controller.MM.Other_GETX |           0      0.00%      0.00% |          42     23.60%     23.60% |          48     26.97%     50.56% |          40     22.47%     73.03% |          48     26.97%    100.00% |           0      0.00%    100.00% |           0      0.00%    100.00%
system.ruby.L1Cache_Controller.MM.Other_GETX::total          178                      
system.ruby.L1Cache_Controller.MM.Other_GETS |         285     57.58%     57.58% |          38      7.68%     65.25% |          39      7.88%     73.13% |          40      8.08%     81.21% |          40      8.08%     89.29% |          44      8.89%     98.18% |           9      1.82%    100.00%
system.ruby.L1Cache_Controller.MM.Other_GETS::total          495                      
system.ruby.L1Cache_Controller.IR.Load   |          44    100.00%    100.00% |           0      0.00%    100.00% |           0      0.00%    100.00% |           0      0.00%    100.00% |           0      0.00%    100.00% |           0      0.00%    100.00% |           0      0.00%    100.00%
system.ruby.L1Cache_Controller.IR.Load::total           44                      
system.ruby.L1Cache_Controller.MR.Load   |          20    100.00%    100.00% |           0      0.00%    100.00% |           0      0.00%    100.00% |           0      0.00%    100.00% |           0      0.00%    100.00% |           0      0.00%    100.00% |           0      0.00%    100.00%
system.ruby.L1Cache_Controller.MR.Load::total           20                      
system.ruby.L1Cache_Controller.MR.Ifetch |        5063    100.00%    100.00% |           0      0.00%    100.00% |           0      0.00%    100.00% |           0      0.00%    100.00% |           0      0.00%    100.00% |           0      0.00%    100.00% |           0      0.00%    100.00%
system.ruby.L1Cache_Controller.MR.Ifetch::total         5063                      
system.ruby.L1Cache_Controller.MR.Store  |           1    100.00%    100.00% |           0      0.00%    100.00% |           0      0.00%    100.00% |           0      0.00%    100.00% |           0      0.00%    100.00% |           0      0.00%    100.00% |           0      0.00%    100.00%
system.ruby.L1Cache_Controller.MR.Store::total            1                      
system.ruby.L1Cache_Controller.MMR.Load  |         420    100.00%    100.00% |           0      0.00%    100.00% |           0      0.00%    100.00% |           0      0.00%    100.00% |           0      0.00%    100.00% |           0      0.00%    100.00% |           0      0.00%    100.00%
system.ruby.L1Cache_Controller.MMR.Load::total          420                      
system.ruby.L1Cache_Controller.MMR.Store |          24    100.00%    100.00% |           0      0.00%    100.00% |           0      0.00%    100.00% |           0      0.00%    100.00% |           0      0.00%    100.00% |           0      0.00%    100.00% |           0      0.00%    100.00%
system.ruby.L1Cache_Controller.MMR.Store::total           24                      
system.ruby.L1Cache_Controller.IM.L1_to_L2 |           0      0.00%      0.00% |           0      0.00%      0.00% |           0      0.00%      0.00% |           0      0.00%      0.00% |           0      0.00%      0.00% |        2996     98.55%     98.55% |          44      1.45%    100.00%
system.ruby.L1Cache_Controller.IM.L1_to_L2::total         3040                      
system.ruby.L1Cache_Controller.IM.Ack    |        4704     60.56%     60.56% |          32      0.41%     60.97% |          46      0.59%     61.56% |          24      0.31%     61.87% |          35      0.45%     62.32% |        2059     26.51%     88.83% |         868     11.17%    100.00%
system.ruby.L1Cache_Controller.IM.Ack::total         7768                      
system.ruby.L1Cache_Controller.IM.Data   |           0      0.00%      0.00% |           0      0.00%      0.00% |           0      0.00%      0.00% |           0      0.00%      0.00% |           0      0.00%      0.00% |           0      0.00%      0.00% |           5    100.00%    100.00%
system.ruby.L1Cache_Controller.IM.Data::total            5                      
system.ruby.L1Cache_Controller.IM.Exclusive_Data |         784     55.84%     55.84% |          11      0.78%     56.62% |          13      0.93%     57.55% |          14      1.00%     58.55% |          11      0.78%     59.33% |         421     29.99%     89.32% |         150     10.68%    100.00%
system.ruby.L1Cache_Controller.IM.Exclusive_Data::total         1404                      
system.ruby.L1Cache_Controller.SM.Other_GETX |           0      0.00%      0.00% |           0      0.00%      0.00% |           2    100.00%    100.00% |           0      0.00%    100.00% |           0      0.00%    100.00% |           0      0.00%    100.00% |           0      0.00%    100.00%
system.ruby.L1Cache_Controller.SM.Other_GETX::total            2                      
system.ruby.L1Cache_Controller.SM.Ack    |           0      0.00%      0.00% |          11     20.00%     20.00% |          25     45.45%     65.45% |           9     16.36%     81.82% |          10     18.18%    100.00% |           0      0.00%    100.00% |           0      0.00%    100.00%
system.ruby.L1Cache_Controller.SM.Ack::total           55                      
system.ruby.L1Cache_Controller.SM.Data   |           0      0.00%      0.00% |           4     21.05%     21.05% |           6     31.58%     52.63% |           4     21.05%     73.68% |           5     26.32%    100.00% |           0      0.00%    100.00% |           0      0.00%    100.00%
system.ruby.L1Cache_Controller.SM.Data::total           19                      
system.ruby.L1Cache_Controller.OM.Ack    |           0      0.00%      0.00% |          48     30.77%     30.77% |          12      7.69%     38.46% |          42     26.92%     65.38% |          54     34.62%    100.00% |           0      0.00%    100.00% |           0      0.00%    100.00%
system.ruby.L1Cache_Controller.OM.Ack::total          156                      
system.ruby.L1Cache_Controller.OM.All_acks_no_sharers |           0      0.00%      0.00% |           8     30.77%     30.77% |           2      7.69%     38.46% |           7     26.92%     65.38% |           9     34.62%    100.00% |           0      0.00%    100.00% |           0      0.00%    100.00%
system.ruby.L1Cache_Controller.OM.All_acks_no_sharers::total           26                      
system.ruby.L1Cache_Controller.ISM.Ack   |           0      0.00%      0.00% |           9     16.98%     16.98% |           5      9.43%     26.42% |          11     20.75%     47.17% |          15     28.30%     75.47% |           0      0.00%     75.47% |          13     24.53%    100.00%
system.ruby.L1Cache_Controller.ISM.Ack::total           53                      
system.ruby.L1Cache_Controller.ISM.All_acks_no_sharers |           0      0.00%      0.00% |           4     16.67%     16.67% |           6     25.00%     41.67% |           4     16.67%     58.33% |           5     20.83%     79.17% |           0      0.00%     79.17% |           5     20.83%    100.00%
system.ruby.L1Cache_Controller.ISM.All_acks_no_sharers::total           24                      
system.ruby.L1Cache_Controller.M_W.L1_to_L2 |           0      0.00%      0.00% |           0      0.00%      0.00% |           0      0.00%      0.00% |           0      0.00%      0.00% |           0      0.00%      0.00% |         310     65.96%     65.96% |         160     34.04%    100.00%
system.ruby.L1Cache_Controller.M_W.L1_to_L2::total          470                      
system.ruby.L1Cache_Controller.M_W.Ack   |          18      2.28%      2.28% |          36      4.56%      6.84% |          15      1.90%      8.75% |          16      2.03%     10.77% |          43      5.45%     16.22% |         333     42.21%     58.43% |         328     41.57%    100.00%
system.ruby.L1Cache_Controller.M_W.Ack::total          789                      
system.ruby.L1Cache_Controller.M_W.All_acks_no_sharers |         648     39.13%     39.13% |         119      7.19%     46.32% |         115      6.94%     53.26% |         102      6.16%     59.42% |         110      6.64%     66.06% |         145      8.76%     74.82% |         417     25.18%    100.00%
system.ruby.L1Cache_Controller.M_W.All_acks_no_sharers::total         1656                      
system.ruby.L1Cache_Controller.MM_W.Store |           0      0.00%      0.00% |          11     52.38%     52.38% |           0      0.00%     52.38% |          10     47.62%    100.00% |           0      0.00%    100.00% |           0      0.00%    100.00% |           0      0.00%    100.00%
system.ruby.L1Cache_Controller.MM_W.Store::total           21                      
system.ruby.L1Cache_Controller.MM_W.L1_to_L2 |           0      0.00%      0.00% |           0      0.00%      0.00% |           0      0.00%      0.00% |           0      0.00%      0.00% |           0      0.00%      0.00% |         532     94.33%     94.33% |          32      5.67%    100.00%
system.ruby.L1Cache_Controller.MM_W.L1_to_L2::total          564                      
system.ruby.L1Cache_Controller.MM_W.Ack  |           0      0.00%      0.00% |          24      4.95%      4.95% |          23      4.74%      9.69% |          46      9.48%     19.18% |          23      4.74%     23.92% |         330     68.04%     91.96% |          39      8.04%    100.00%
system.ruby.L1Cache_Controller.MM_W.Ack::total          485                      
system.ruby.L1Cache_Controller.MM_W.All_acks_no_sharers |         784     55.84%     55.84% |          11      0.78%     56.62% |          13      0.93%     57.55% |          14      1.00%     58.55% |          11      0.78%     59.33% |         421     29.99%     89.32% |         150     10.68%    100.00%
system.ruby.L1Cache_Controller.MM_W.All_acks_no_sharers::total         1404                      
system.ruby.L1Cache_Controller.IS.L1_to_L2 |           0      0.00%      0.00% |           0      0.00%      0.00% |           0      0.00%      0.00% |           0      0.00%      0.00% |           0      0.00%      0.00% |        3285     22.63%     22.63% |       11231     77.37%    100.00%
system.ruby.L1Cache_Controller.IS.L1_to_L2::total        14516                      
system.ruby.L1Cache_Controller.IS.Other_GETS |           0      0.00%      0.00% |           3      7.14%      7.14% |          11     26.19%     33.33% |          19     45.24%     78.57% |           9     21.43%    100.00% |           0      0.00%    100.00% |           0      0.00%    100.00%
system.ruby.L1Cache_Controller.IS.Other_GETS::total           42                      
system.ruby.L1Cache_Controller.IS.Ack    |        3861     43.49%     43.49% |         679      7.65%     51.14% |         735      8.28%     59.42% |         628      7.07%     66.49% |         648      7.30%     73.79% |         415      4.67%     78.46% |        1912     21.54%    100.00%
system.ruby.L1Cache_Controller.IS.Ack::total         8878                      
system.ruby.L1Cache_Controller.IS.Shared_Ack |           0      0.00%      0.00% |           1      6.25%      6.25% |           0      0.00%      6.25% |           0      0.00%      6.25% |           3     18.75%     25.00% |          12     75.00%    100.00% |           0      0.00%    100.00%
system.ruby.L1Cache_Controller.IS.Shared_Ack::total           16                      
system.ruby.L1Cache_Controller.IS.Shared_Data |           0      0.00%      0.00% |          12     10.53%     10.53% |          27     23.68%     34.21% |          30     26.32%     60.53% |          30     26.32%     86.84% |           9      7.89%     94.74% |           6      5.26%    100.00%
system.ruby.L1Cache_Controller.IS.Shared_Data::total          114                      
system.ruby.L1Cache_Controller.IS.Exclusive_Data |         648     39.13%     39.13% |         119      7.19%     46.32% |         115      6.94%     53.26% |         102      6.16%     59.42% |         110      6.64%     66.06% |         145      8.76%     74.82% |         417     25.18%    100.00%
system.ruby.L1Cache_Controller.IS.Exclusive_Data::total         1656                      
system.ruby.L1Cache_Controller.SS.Load   |           0      0.00%      0.00% |           0      0.00%      0.00% |           6     33.33%     33.33% |           3     16.67%     50.00% |           9     50.00%    100.00% |           0      0.00%    100.00% |           0      0.00%    100.00%
system.ruby.L1Cache_Controller.SS.Load::total           18                      
system.ruby.L1Cache_Controller.SS.Ack    |           0      0.00%      0.00% |          22     12.50%     12.50% |          55     31.25%     43.75% |          35     19.89%     63.64% |          50     28.41%     92.05% |           7      3.98%     96.02% |           7      3.98%    100.00%
system.ruby.L1Cache_Controller.SS.Ack::total          176                      
system.ruby.L1Cache_Controller.SS.Shared_Ack |           0      0.00%      0.00% |           1      8.33%      8.33% |           1      8.33%     16.67% |           2     16.67%     33.33% |           5     41.67%     75.00% |           3     25.00%    100.00% |           0      0.00%    100.00%
system.ruby.L1Cache_Controller.SS.Shared_Ack::total           12                      
system.ruby.L1Cache_Controller.SS.All_acks |           0      0.00%      0.00% |          12     10.53%     10.53% |          27     23.68%     34.21% |          30     26.32%     60.53% |          30     26.32%     86.84% |           9      7.89%     94.74% |           6      5.26%    100.00%
system.ruby.L1Cache_Controller.SS.All_acks::total          114                      
system.ruby.L1Cache_Controller.MI.Writeback_Ack |           0      0.00%      0.00% |           0      0.00%      0.00% |           0      0.00%      0.00% |           0      0.00%      0.00% |           0      0.00%      0.00% |         499     48.03%     48.03% |         540     51.97%    100.00%
system.ruby.L1Cache_Controller.MI.Writeback_Ack::total         1039                      
system.ruby.L1Cache_Controller.IT.Complete_L2_to_L1 |          44    100.00%    100.00% |           0      0.00%    100.00% |           0      0.00%    100.00% |           0      0.00%    100.00% |           0      0.00%    100.00% |           0      0.00%    100.00% |           0      0.00%    100.00%
system.ruby.L1Cache_Controller.IT.Complete_L2_to_L1::total           44                      
system.ruby.L1Cache_Controller.MT.Complete_L2_to_L1 |        5084    100.00%    100.00% |           0      0.00%    100.00% |           0      0.00%    100.00% |           0      0.00%    100.00% |           0      0.00%    100.00% |           0      0.00%    100.00% |           0      0.00%    100.00%
system.ruby.L1Cache_Controller.MT.Complete_L2_to_L1::total         5084                      
system.ruby.L1Cache_Controller.MMT.Complete_L2_to_L1 |         444    100.00%    100.00% |           0      0.00%    100.00% |           0      0.00%    100.00% |           0      0.00%    100.00% |           0      0.00%    100.00% |           0      0.00%    100.00% |           0      0.00%    100.00%
system.ruby.L1Cache_Controller.MMT.Complete_L2_to_L1::total          444                      

---------- End Simulation Statistics   ----------
