
---------- Begin Simulation Statistics ----------
sim_seconds                                  0.008913                       # Number of seconds simulated
sim_ticks                                  8912771500                       # Number of ticks simulated
final_tick                                 8912771500                       # Number of ticks from beginning of simulation (restored from checkpoints and never reset)
sim_freq                                 1000000000000                       # Frequency of simulated ticks
host_inst_rate                                 204304                       # Simulator instruction rate (inst/s)
host_op_rate                                   390339                       # Simulator op (including micro ops) rate (op/s)
host_tick_rate                              368124868                       # Simulator tick rate (ticks/s)
host_mem_usage                                4533636                       # Number of bytes of host memory used
host_seconds                                    24.21                       # Real time elapsed on the host
sim_insts                                     4946444                       # Number of instructions simulated
sim_ops                                       9450604                       # Number of ops (including micro ops) simulated
system.voltage_domain.voltage                       1                       # Voltage in Volts
system.clk_domain.clock                          1000                       # Clock period in ticks
system.mem_ctrls.clk_domain.clock                2500                       # Clock period in ticks
system.dev_mem_ctrls.bytes_read::ruby.dev_dir_cntrl0        56576                       # Number of bytes read from this memory
system.dev_mem_ctrls.bytes_read::total          56576                       # Number of bytes read from this memory
system.dev_mem_ctrls.bytes_written::ruby.dev_dir_cntrl0        53888                       # Number of bytes written to this memory
system.dev_mem_ctrls.bytes_written::total        53888                       # Number of bytes written to this memory
system.dev_mem_ctrls.num_reads::ruby.dev_dir_cntrl0          442                       # Number of read requests responded to by this memory
system.dev_mem_ctrls.num_reads::total             442                       # Number of read requests responded to by this memory
system.dev_mem_ctrls.num_writes::ruby.dev_dir_cntrl0          421                       # Number of write requests responded to by this memory
system.dev_mem_ctrls.num_writes::total            421                       # Number of write requests responded to by this memory
system.dev_mem_ctrls.bw_read::ruby.dev_dir_cntrl0      6347745                       # Total read bandwidth from this memory (bytes/s)
system.dev_mem_ctrls.bw_read::total           6347745                       # Total read bandwidth from this memory (bytes/s)
system.dev_mem_ctrls.bw_write::ruby.dev_dir_cntrl0      6046155                       # Write bandwidth from this memory (bytes/s)
system.dev_mem_ctrls.bw_write::total          6046155                       # Write bandwidth from this memory (bytes/s)
system.dev_mem_ctrls.bw_total::ruby.dev_dir_cntrl0     12393900                       # Total bandwidth to/from this memory (bytes/s)
system.dev_mem_ctrls.bw_total::total         12393900                       # Total bandwidth to/from this memory (bytes/s)
system.dev_mem_ctrls.memReq                       863                       # Total number of memory requests
system.dev_mem_ctrls.memRead                      442                       # Number of memory reads
system.dev_mem_ctrls.memWrite                     421                       # Number of memory writes
system.dev_mem_ctrls.memRefresh                   266                       # Number of memory refreshes
system.dev_mem_ctrls.memWaitCycles              28474                       # Delay stalled at the head of the bank queue
system.dev_mem_ctrls.memInputQ                  17875                       # Delay in the input queue
system.dev_mem_ctrls.memBankQ                   21340                       # Delay behind the head of the bank queue
system.dev_mem_ctrls.totalStalls                67689                       # Total number of stall cycles
system.dev_mem_ctrls.stallsPerReq           78.434531                       # Expected number of stall cycles per request
system.dev_mem_ctrls.memBankBusy                 5045                       # memory stalls due to busy bank
system.dev_mem_ctrls.memBusBusy                  8188                       # memory stalls due to busy bus
system.dev_mem_ctrls.memDataBusBusy              1795                       # memory stalls due to read read turnaround
system.dev_mem_ctrls.memArbWait                  6102                       # memory stalls due to arbitration
system.dev_mem_ctrls.memNotOld                   7344                       # memory stalls due to anti starvation
system.dev_mem_ctrls.memBankCount        |          26      3.01%      3.01% |          26      3.01%      6.03% |          26      3.01%      9.04% |          26      3.01%     12.05% |          26      3.01%     15.06% |          26      3.01%     18.08% |          25      2.90%     20.97% |          24      2.78%     23.75% |          24      2.78%     26.54% |          26      3.01%     29.55% |          28      3.24%     32.79% |          28      3.24%     36.04% |          28      3.24%     39.28% |          28      3.24%     42.53% |          28      3.24%     45.77% |          32      3.71%     49.48% |          32      3.71%     53.19% |          32      3.71%     56.89% |          32      3.71%     60.60% |          26      3.01%     63.62% |          26      3.01%     66.63% |          26      3.01%     69.64% |          26      3.01%     72.65% |          28      3.24%     75.90% |          28      3.24%     79.14% |          28      3.24%     82.39% |          28      3.24%     85.63% |          28      3.24%     88.88% |          24      2.78%     91.66% |          24      2.78%     94.44% |          24      2.78%     97.22% |          24      2.78%    100.00% # Number of accesses per bank
system.dev_mem_ctrls.memBankCount::total          863                       # Number of accesses per bank
system.mem_ctrls.bytes_read::ruby.dir_cntrl0       200192                       # Number of bytes read from this memory
system.mem_ctrls.bytes_read::total             200192                       # Number of bytes read from this memory
system.mem_ctrls.bytes_written::ruby.dir_cntrl0        19840                       # Number of bytes written to this memory
system.mem_ctrls.bytes_written::total           19840                       # Number of bytes written to this memory
system.mem_ctrls.num_reads::ruby.dir_cntrl0         1564                       # Number of read requests responded to by this memory
system.mem_ctrls.num_reads::total                1564                       # Number of read requests responded to by this memory
system.mem_ctrls.num_writes::ruby.dir_cntrl0          155                       # Number of write requests responded to by this memory
system.mem_ctrls.num_writes::total                155                       # Number of write requests responded to by this memory
system.mem_ctrls.bw_read::ruby.dir_cntrl0     22461251                       # Total read bandwidth from this memory (bytes/s)
system.mem_ctrls.bw_read::total              22461251                       # Total read bandwidth from this memory (bytes/s)
system.mem_ctrls.bw_write::ruby.dir_cntrl0      2226019                       # Write bandwidth from this memory (bytes/s)
system.mem_ctrls.bw_write::total              2226019                       # Write bandwidth from this memory (bytes/s)
system.mem_ctrls.bw_total::ruby.dir_cntrl0     24687270                       # Total bandwidth to/from this memory (bytes/s)
system.mem_ctrls.bw_total::total             24687270                       # Total bandwidth to/from this memory (bytes/s)
system.mem_ctrls.memReq                          1719                       # Total number of memory requests
system.mem_ctrls.memRead                         1564                       # Number of memory reads
system.mem_ctrls.memWrite                         155                       # Number of memory writes
system.mem_ctrls.memRefresh                      9157                       # Number of memory refreshes
system.mem_ctrls.memWaitCycles                  10270                       # Delay stalled at the head of the bank queue
system.mem_ctrls.memInputQ                       3007                       # Delay in the input queue
system.mem_ctrls.memBankQ                        6322                       # Delay behind the head of the bank queue
system.mem_ctrls.totalStalls                    19599                       # Total number of stall cycles
system.mem_ctrls.stallsPerReq               11.401396                       # Expected number of stall cycles per request
system.mem_ctrls.memBankBusy                     1771                       # memory stalls due to busy bank
system.mem_ctrls.memBusBusy                      2816                       # memory stalls due to busy bus
system.mem_ctrls.memDataBusBusy                   509                       # memory stalls due to read read turnaround
system.mem_ctrls.memArbWait                      2206                       # memory stalls due to arbitration
system.mem_ctrls.memNotOld                       2968                       # memory stalls due to anti starvation
system.mem_ctrls.memBankCount            |          51      2.97%      2.97% |          55      3.20%      6.17% |          50      2.91%      9.08% |          54      3.14%     12.22% |          49      2.85%     15.07% |          48      2.79%     17.86% |          45      2.62%     20.48% |          49      2.85%     23.33% |          50      2.91%     26.24% |          49      2.85%     29.09% |          57      3.32%     32.40% |          50      2.91%     35.31% |          47      2.73%     38.05% |          48      2.79%     40.84% |          53      3.08%     43.92% |          52      3.03%     46.95% |          60      3.49%     50.44% |          60      3.49%     53.93% |          55      3.20%     57.13% |          58      3.37%     60.50% |          47      2.73%     63.23% |          48      2.79%     66.03% |          56      3.26%     69.28% |          60      3.49%     72.77% |          67      3.90%     76.67% |          60      3.49%     80.16% |          58      3.37%     83.54% |          57      3.32%     86.85% |          55      3.20%     90.05% |          56      3.26%     93.31% |          60      3.49%     96.80% |          55      3.20%    100.00% # Number of accesses per bank
system.mem_ctrls.memBankCount::total             1719                       # Number of accesses per bank
system.ruby_clk_domain.clock                      500                       # Clock period in ticks
system.ruby.phys_mem.bytes_read::cpu.inst     53171896                       # Number of bytes read from this memory
system.ruby.phys_mem.bytes_read::cpu.data      7953291                       # Number of bytes read from this memory
system.ruby.phys_mem.bytes_read::gpu.ce         73052                       # Number of bytes read from this memory
system.ruby.phys_mem.bytes_read::gpu.shader_cores0.data        35072                       # Number of bytes read from this memory
system.ruby.phys_mem.bytes_read::gpu.shader_cores0.inst          288                       # Number of bytes read from this memory
system.ruby.phys_mem.bytes_read::gpu.shader_cores1.data        35456                       # Number of bytes read from this memory
system.ruby.phys_mem.bytes_read::gpu.shader_cores1.inst          312                       # Number of bytes read from this memory
system.ruby.phys_mem.bytes_read::gpu.shader_cores2.data        35072                       # Number of bytes read from this memory
system.ruby.phys_mem.bytes_read::gpu.shader_cores2.inst          288                       # Number of bytes read from this memory
system.ruby.phys_mem.bytes_read::gpu.shader_cores3.data        34816                       # Number of bytes read from this memory
system.ruby.phys_mem.bytes_read::gpu.shader_cores3.inst          288                       # Number of bytes read from this memory
system.ruby.phys_mem.bytes_read::total       61339831                       # Number of bytes read from this memory
system.ruby.phys_mem.bytes_inst_read::cpu.inst     53171896                       # Number of instructions bytes read from this memory
system.ruby.phys_mem.bytes_inst_read::gpu.shader_cores0.inst          288                       # Number of instructions bytes read from this memory
system.ruby.phys_mem.bytes_inst_read::gpu.shader_cores1.inst          312                       # Number of instructions bytes read from this memory
system.ruby.phys_mem.bytes_inst_read::gpu.shader_cores2.inst          288                       # Number of instructions bytes read from this memory
system.ruby.phys_mem.bytes_inst_read::gpu.shader_cores3.inst          288                       # Number of instructions bytes read from this memory
system.ruby.phys_mem.bytes_inst_read::total     53173072                       # Number of instructions bytes read from this memory
system.ruby.phys_mem.bytes_written::cpu.data      4954819                       # Number of bytes written to this memory
system.ruby.phys_mem.bytes_written::gpu.ce        73052                       # Number of bytes written to this memory
system.ruby.phys_mem.bytes_written::gpu.shader_cores0.data        12544                       # Number of bytes written to this memory
system.ruby.phys_mem.bytes_written::gpu.shader_cores1.data        12672                       # Number of bytes written to this memory
system.ruby.phys_mem.bytes_written::gpu.shader_cores2.data        12544                       # Number of bytes written to this memory
system.ruby.phys_mem.bytes_written::gpu.shader_cores3.data        12544                       # Number of bytes written to this memory
system.ruby.phys_mem.bytes_written::total      5078175                       # Number of bytes written to this memory
system.ruby.phys_mem.num_reads::cpu.inst      6646487                       # Number of read requests responded to by this memory
system.ruby.phys_mem.num_reads::cpu.data      1295108                       # Number of read requests responded to by this memory
system.ruby.phys_mem.num_reads::gpu.ce            577                       # Number of read requests responded to by this memory
system.ruby.phys_mem.num_reads::gpu.shader_cores0.data          428                       # Number of read requests responded to by this memory
system.ruby.phys_mem.num_reads::gpu.shader_cores0.inst           12                       # Number of read requests responded to by this memory
system.ruby.phys_mem.num_reads::gpu.shader_cores1.data          421                       # Number of read requests responded to by this memory
system.ruby.phys_mem.num_reads::gpu.shader_cores1.inst           13                       # Number of read requests responded to by this memory
system.ruby.phys_mem.num_reads::gpu.shader_cores2.data          428                       # Number of read requests responded to by this memory
system.ruby.phys_mem.num_reads::gpu.shader_cores2.inst           12                       # Number of read requests responded to by this memory
system.ruby.phys_mem.num_reads::gpu.shader_cores3.data          416                       # Number of read requests responded to by this memory
system.ruby.phys_mem.num_reads::gpu.shader_cores3.inst           12                       # Number of read requests responded to by this memory
system.ruby.phys_mem.num_reads::total         7943914                       # Number of read requests responded to by this memory
system.ruby.phys_mem.num_writes::cpu.data       785970                       # Number of write requests responded to by this memory
system.ruby.phys_mem.num_writes::gpu.ce           576                       # Number of write requests responded to by this memory
system.ruby.phys_mem.num_writes::gpu.shader_cores0.data          308                       # Number of write requests responded to by this memory
system.ruby.phys_mem.num_writes::gpu.shader_cores1.data          322                       # Number of write requests responded to by this memory
system.ruby.phys_mem.num_writes::gpu.shader_cores2.data          308                       # Number of write requests responded to by this memory
system.ruby.phys_mem.num_writes::gpu.shader_cores3.data          320                       # Number of write requests responded to by this memory
system.ruby.phys_mem.num_writes::total         787804                       # Number of write requests responded to by this memory
system.ruby.phys_mem.bw_read::cpu.inst     5965809401                       # Total read bandwidth from this memory (bytes/s)
system.ruby.phys_mem.bw_read::cpu.data      892347683                       # Total read bandwidth from this memory (bytes/s)
system.ruby.phys_mem.bw_read::gpu.ce          8196328                       # Total read bandwidth from this memory (bytes/s)
system.ruby.phys_mem.bw_read::gpu.shader_cores0.data      3935027                       # Total read bandwidth from this memory (bytes/s)
system.ruby.phys_mem.bw_read::gpu.shader_cores0.inst        32313                       # Total read bandwidth from this memory (bytes/s)
system.ruby.phys_mem.bw_read::gpu.shader_cores1.data      3978112                       # Total read bandwidth from this memory (bytes/s)
system.ruby.phys_mem.bw_read::gpu.shader_cores1.inst        35006                       # Total read bandwidth from this memory (bytes/s)
system.ruby.phys_mem.bw_read::gpu.shader_cores2.data      3935027                       # Total read bandwidth from this memory (bytes/s)
system.ruby.phys_mem.bw_read::gpu.shader_cores2.inst        32313                       # Total read bandwidth from this memory (bytes/s)
system.ruby.phys_mem.bw_read::gpu.shader_cores3.data      3906305                       # Total read bandwidth from this memory (bytes/s)
system.ruby.phys_mem.bw_read::gpu.shader_cores3.inst        32313                       # Total read bandwidth from this memory (bytes/s)
system.ruby.phys_mem.bw_read::total        6882239829                       # Total read bandwidth from this memory (bytes/s)
system.ruby.phys_mem.bw_inst_read::cpu.inst   5965809401                       # Instruction read bandwidth from this memory (bytes/s)
system.ruby.phys_mem.bw_inst_read::gpu.shader_cores0.inst        32313                       # Instruction read bandwidth from this memory (bytes/s)
system.ruby.phys_mem.bw_inst_read::gpu.shader_cores1.inst        35006                       # Instruction read bandwidth from this memory (bytes/s)
system.ruby.phys_mem.bw_inst_read::gpu.shader_cores2.inst        32313                       # Instruction read bandwidth from this memory (bytes/s)
system.ruby.phys_mem.bw_inst_read::gpu.shader_cores3.inst        32313                       # Instruction read bandwidth from this memory (bytes/s)
system.ruby.phys_mem.bw_inst_read::total   5965941346                       # Instruction read bandwidth from this memory (bytes/s)
system.ruby.phys_mem.bw_write::cpu.data     555923486                       # Write bandwidth from this memory (bytes/s)
system.ruby.phys_mem.bw_write::gpu.ce         8196328                       # Write bandwidth from this memory (bytes/s)
system.ruby.phys_mem.bw_write::gpu.shader_cores0.data      1407419                       # Write bandwidth from this memory (bytes/s)
system.ruby.phys_mem.bw_write::gpu.shader_cores1.data      1421780                       # Write bandwidth from this memory (bytes/s)
system.ruby.phys_mem.bw_write::gpu.shader_cores2.data      1407419                       # Write bandwidth from this memory (bytes/s)
system.ruby.phys_mem.bw_write::gpu.shader_cores3.data      1407419                       # Write bandwidth from this memory (bytes/s)
system.ruby.phys_mem.bw_write::total        569763850                       # Write bandwidth from this memory (bytes/s)
system.ruby.phys_mem.bw_total::cpu.inst    5965809401                       # Total bandwidth to/from this memory (bytes/s)
system.ruby.phys_mem.bw_total::cpu.data    1448271169                       # Total bandwidth to/from this memory (bytes/s)
system.ruby.phys_mem.bw_total::gpu.ce        16392656                       # Total bandwidth to/from this memory (bytes/s)
system.ruby.phys_mem.bw_total::gpu.shader_cores0.data      5342446                       # Total bandwidth to/from this memory (bytes/s)
system.ruby.phys_mem.bw_total::gpu.shader_cores0.inst        32313                       # Total bandwidth to/from this memory (bytes/s)
system.ruby.phys_mem.bw_total::gpu.shader_cores1.data      5399892                       # Total bandwidth to/from this memory (bytes/s)
system.ruby.phys_mem.bw_total::gpu.shader_cores1.inst        35006                       # Total bandwidth to/from this memory (bytes/s)
system.ruby.phys_mem.bw_total::gpu.shader_cores2.data      5342446                       # Total bandwidth to/from this memory (bytes/s)
system.ruby.phys_mem.bw_total::gpu.shader_cores2.inst        32313                       # Total bandwidth to/from this memory (bytes/s)
system.ruby.phys_mem.bw_total::gpu.shader_cores3.data      5313723                       # Total bandwidth to/from this memory (bytes/s)
system.ruby.phys_mem.bw_total::gpu.shader_cores3.inst        32313                       # Total bandwidth to/from this memory (bytes/s)
system.ruby.phys_mem.bw_total::total       7452003678                       # Total bandwidth to/from this memory (bytes/s)
system.cpu_voltage_domain.voltage                   1                       # Voltage in Volts
system.cpu_clk_domain.clock                       500                       # Clock period in ticks
system.cpu.apic_clk_domain.clock                 8000                       # Clock period in ticks
system.cpu.workload.num_syscalls                   44                       # Number of system calls
system.cpu.numCycles                         17825543                       # number of cpu cycles simulated
system.cpu.numWorkItemsStarted                      1                       # number of work items this cpu started
system.cpu.numWorkItemsCompleted                    1                       # number of work items this cpu completed
system.cpu.committedInsts                     4946444                       # Number of instructions committed
system.cpu.committedOps                       9450604                       # Number of ops (including micro ops) committed
system.cpu.num_int_alu_accesses               9303231                       # Number of integer alu accesses
system.cpu.num_fp_alu_accesses                 212669                       # Number of float alu accesses
system.cpu.num_func_calls                      196214                       # number of times a function call or return occured
system.cpu.num_conditional_control_insts       810141                       # number of instructions that are conditional controls
system.cpu.num_int_insts                      9303231                       # number of integer instructions
system.cpu.num_fp_insts                        212669                       # number of float instructions
system.cpu.num_int_register_reads            17826802                       # number of times the integer registers were read
system.cpu.num_int_register_writes            7438182                       # number of times the integer registers were written
system.cpu.num_fp_register_reads               283204                       # number of times the floating registers were read
system.cpu.num_fp_register_writes              145430                       # number of times the floating registers were written
system.cpu.num_cc_register_reads              5491224                       # number of times the CC registers were read
system.cpu.num_cc_register_writes             3235525                       # number of times the CC registers were written
system.cpu.num_mem_refs                       2081078                       # number of memory refs
system.cpu.num_load_insts                     1295108                       # Number of load instructions
system.cpu.num_store_insts                     785970                       # Number of store instructions
system.cpu.num_idle_cycles               79943.755991                       # Number of idle cycles
system.cpu.num_busy_cycles               17745599.244009                       # Number of busy cycles
system.cpu.not_idle_fraction                 0.995515                       # Percentage of non-idle cycles
system.cpu.idle_fraction                     0.004485                       # Percentage of idle cycles
system.cpu.Branches                           1085852                       # Number of branches fetched
system.cpu.op_class::No_OpClass                 34947      0.37%      0.37% # Class of executed instruction
system.cpu.op_class::IntAlu                   7182236     76.00%     76.37% # Class of executed instruction
system.cpu.op_class::IntMult                    20875      0.22%     76.59% # Class of executed instruction
system.cpu.op_class::IntDiv                       370      0.00%     76.59% # Class of executed instruction
system.cpu.op_class::FloatAdd                  131098      1.39%     77.98% # Class of executed instruction
system.cpu.op_class::FloatCmp                       0      0.00%     77.98% # Class of executed instruction
system.cpu.op_class::FloatCvt                       0      0.00%     77.98% # Class of executed instruction
system.cpu.op_class::FloatMult                      0      0.00%     77.98% # Class of executed instruction
system.cpu.op_class::FloatDiv                       0      0.00%     77.98% # Class of executed instruction
system.cpu.op_class::FloatSqrt                      0      0.00%     77.98% # Class of executed instruction
system.cpu.op_class::SimdAdd                        0      0.00%     77.98% # Class of executed instruction
system.cpu.op_class::SimdAddAcc                     0      0.00%     77.98% # Class of executed instruction
system.cpu.op_class::SimdAlu                        0      0.00%     77.98% # Class of executed instruction
system.cpu.op_class::SimdCmp                        0      0.00%     77.98% # Class of executed instruction
system.cpu.op_class::SimdCvt                        0      0.00%     77.98% # Class of executed instruction
system.cpu.op_class::SimdMisc                       0      0.00%     77.98% # Class of executed instruction
system.cpu.op_class::SimdMult                       0      0.00%     77.98% # Class of executed instruction
system.cpu.op_class::SimdMultAcc                    0      0.00%     77.98% # Class of executed instruction
system.cpu.op_class::SimdShift                      0      0.00%     77.98% # Class of executed instruction
system.cpu.op_class::SimdShiftAcc                   0      0.00%     77.98% # Class of executed instruction
system.cpu.op_class::SimdSqrt                       0      0.00%     77.98% # Class of executed instruction
system.cpu.op_class::SimdFloatAdd                   0      0.00%     77.98% # Class of executed instruction
system.cpu.op_class::SimdFloatAlu                   0      0.00%     77.98% # Class of executed instruction
system.cpu.op_class::SimdFloatCmp                   0      0.00%     77.98% # Class of executed instruction
system.cpu.op_class::SimdFloatCvt                   0      0.00%     77.98% # Class of executed instruction
system.cpu.op_class::SimdFloatDiv                   0      0.00%     77.98% # Class of executed instruction
system.cpu.op_class::SimdFloatMisc                  0      0.00%     77.98% # Class of executed instruction
system.cpu.op_class::SimdFloatMult                  0      0.00%     77.98% # Class of executed instruction
system.cpu.op_class::SimdFloatMultAcc               0      0.00%     77.98% # Class of executed instruction
system.cpu.op_class::SimdFloatSqrt                  0      0.00%     77.98% # Class of executed instruction
system.cpu.op_class::MemRead                  1295108     13.70%     91.68% # Class of executed instruction
system.cpu.op_class::MemWrite                  785970      8.32%    100.00% # Class of executed instruction
system.cpu.op_class::IprAccess                      0      0.00%    100.00% # Class of executed instruction
system.cpu.op_class::InstPrefetch                   0      0.00%    100.00% # Class of executed instruction
system.cpu.op_class::total                    9450604                       # Class of executed instruction
system.gpu.clk_domain.voltage_domain.voltage            1                       # Voltage in Volts
system.gpu.clk_domain.clock                      1429                       # Clock period in ticks
system.gpu.dram_wrapper.clk_domain.clock          541                       # Clock period in ticks
system.gpu.icnt_wrapper.clk_domain.clock         2858                       # Clock period in ticks
system.ruby.delayHist::bucket_size                  4                       # delay histogram for all message
system.ruby.delayHist::max_bucket                  39                       # delay histogram for all message
system.ruby.delayHist::samples                   1793                       # delay histogram for all message
system.ruby.delayHist::mean                  0.749582                       # delay histogram for all message
system.ruby.delayHist::stdev                 3.354149                       # delay histogram for all message
system.ruby.delayHist                    |        1685     93.98%     93.98% |           3      0.17%     94.14% |          64      3.57%     97.71% |           3      0.17%     97.88% |          20      1.12%     99.00% |           1      0.06%     99.05% |          15      0.84%     99.89% |           1      0.06%     99.94% |           1      0.06%    100.00% |           0      0.00%    100.00% # delay histogram for all message
system.ruby.delayHist::total                     1793                       # delay histogram for all message
system.ruby.outstanding_req_hist::bucket_size            8                      
system.ruby.outstanding_req_hist::max_bucket           79                      
system.ruby.outstanding_req_hist::samples      8731718                      
system.ruby.outstanding_req_hist::mean       1.011685                      
system.ruby.outstanding_req_hist::gmean      1.001365                      
system.ruby.outstanding_req_hist::stdev      0.652619                      
system.ruby.outstanding_req_hist         |     8728288     99.96%     99.96% |         627      0.01%     99.97% |         466      0.01%     99.97% |         934      0.01%     99.98% |         791      0.01%     99.99% |         127      0.00%     99.99% |         114      0.00%    100.00% |         145      0.00%    100.00% |         226      0.00%    100.00% |           0      0.00%    100.00%
system.ruby.outstanding_req_hist::total       8731718                      
system.ruby.latency_hist::bucket_size             256                      
system.ruby.latency_hist::max_bucket             2559                      
system.ruby.latency_hist::samples             8731718                      
system.ruby.latency_hist::mean               1.197188                      
system.ruby.latency_hist::gmean              1.004597                      
system.ruby.latency_hist::stdev             11.082932                      
system.ruby.latency_hist                 |     8729694     99.98%     99.98% |         916      0.01%     99.99% |         675      0.01%    100.00% |         170      0.00%    100.00% |         112      0.00%    100.00% |          91      0.00%    100.00% |          53      0.00%    100.00% |           7      0.00%    100.00% |           0      0.00%    100.00% |           0      0.00%    100.00%
system.ruby.latency_hist::total               8731718                      
system.ruby.hit_latency_hist::bucket_size          128                      
system.ruby.hit_latency_hist::max_bucket         1279                      
system.ruby.hit_latency_hist::samples         8729751                      
system.ruby.hit_latency_hist::mean           1.112199                      
system.ruby.hit_latency_hist::gmean          1.003358                      
system.ruby.hit_latency_hist::stdev          6.959715                      
system.ruby.hit_latency_hist             |     8727462     99.97%     99.97% |         798      0.01%     99.98% |         468      0.01%     99.99% |         375      0.00%     99.99% |         484      0.01%    100.00% |          79      0.00%    100.00% |          44      0.00%    100.00% |          33      0.00%    100.00% |           7      0.00%    100.00% |           1      0.00%    100.00%
system.ruby.hit_latency_hist::total           8729751                      
system.ruby.miss_latency_hist::bucket_size          256                      
system.ruby.miss_latency_hist::max_bucket         2559                      
system.ruby.miss_latency_hist::samples           1967                      
system.ruby.miss_latency_hist::mean        378.386884                      
system.ruby.miss_latency_hist::gmean       240.394092                      
system.ruby.miss_latency_hist::stdev       433.683576                      
system.ruby.miss_latency_hist            |        1434     72.90%     72.90% |          73      3.71%     76.61% |         112      5.69%     82.31% |          93      4.73%     87.04% |         104      5.29%     92.32% |          91      4.63%     96.95% |          53      2.69%     99.64% |           7      0.36%    100.00% |           0      0.00%    100.00% |           0      0.00%    100.00%
system.ruby.miss_latency_hist::total             1967                      
system.ruby.GPUL2Cache.incomplete_times           101                      
system.ruby.Directory.incomplete_times            434                      
system.gpu.shader_mmu.numPagefaults                 0                       # Number of Pagefaults
system.gpu.shader_mmu.numPagewalks                169                       # Number of Pagewalks
system.gpu.shader_mmu.totalRequests               169                       # Total number of requests
system.gpu.shader_mmu.retryFailures                 0                       # Times the retry walk after a pagefault failed
system.gpu.shader_mmu.l2hits                        0                       # Hits in the shared L2
system.gpu.shader_mmu.prefetchHits                  0                       # Number of prefetch hits
system.gpu.shader_mmu.numPrefetches                 0                       # Number of prefetchs
system.gpu.shader_mmu.prefetchFaults                0                       # Number of faults caused by prefetches
system.gpu.shader_mmu.pagefaultLatency::samples            0                       # Latency to complete the pagefault
system.gpu.shader_mmu.pagefaultLatency::mean          nan                       # Latency to complete the pagefault
system.gpu.shader_mmu.pagefaultLatency::gmean          nan                       # Latency to complete the pagefault
system.gpu.shader_mmu.pagefaultLatency::stdev          nan                       # Latency to complete the pagefault
system.gpu.shader_mmu.pagefaultLatency::0            0                       # Latency to complete the pagefault
system.gpu.shader_mmu.pagefaultLatency::1            0                       # Latency to complete the pagefault
system.gpu.shader_mmu.pagefaultLatency::2            0                       # Latency to complete the pagefault
system.gpu.shader_mmu.pagefaultLatency::3            0                       # Latency to complete the pagefault
system.gpu.shader_mmu.pagefaultLatency::4            0                       # Latency to complete the pagefault
system.gpu.shader_mmu.pagefaultLatency::5            0                       # Latency to complete the pagefault
system.gpu.shader_mmu.pagefaultLatency::6            0                       # Latency to complete the pagefault
system.gpu.shader_mmu.pagefaultLatency::7            0                       # Latency to complete the pagefault
system.gpu.shader_mmu.pagefaultLatency::8            0                       # Latency to complete the pagefault
system.gpu.shader_mmu.pagefaultLatency::9            0                       # Latency to complete the pagefault
system.gpu.shader_mmu.pagefaultLatency::10            0                       # Latency to complete the pagefault
system.gpu.shader_mmu.pagefaultLatency::11            0                       # Latency to complete the pagefault
system.gpu.shader_mmu.pagefaultLatency::12            0                       # Latency to complete the pagefault
system.gpu.shader_mmu.pagefaultLatency::13            0                       # Latency to complete the pagefault
system.gpu.shader_mmu.pagefaultLatency::14            0                       # Latency to complete the pagefault
system.gpu.shader_mmu.pagefaultLatency::15            0                       # Latency to complete the pagefault
system.gpu.shader_mmu.pagefaultLatency::16            0                       # Latency to complete the pagefault
system.gpu.shader_mmu.pagefaultLatency::17            0                       # Latency to complete the pagefault
system.gpu.shader_mmu.pagefaultLatency::18            0                       # Latency to complete the pagefault
system.gpu.shader_mmu.pagefaultLatency::19            0                       # Latency to complete the pagefault
system.gpu.shader_mmu.pagefaultLatency::20            0                       # Latency to complete the pagefault
system.gpu.shader_mmu.pagefaultLatency::21            0                       # Latency to complete the pagefault
system.gpu.shader_mmu.pagefaultLatency::22            0                       # Latency to complete the pagefault
system.gpu.shader_mmu.pagefaultLatency::23            0                       # Latency to complete the pagefault
system.gpu.shader_mmu.pagefaultLatency::24            0                       # Latency to complete the pagefault
system.gpu.shader_mmu.pagefaultLatency::25            0                       # Latency to complete the pagefault
system.gpu.shader_mmu.pagefaultLatency::26            0                       # Latency to complete the pagefault
system.gpu.shader_mmu.pagefaultLatency::27            0                       # Latency to complete the pagefault
system.gpu.shader_mmu.pagefaultLatency::28            0                       # Latency to complete the pagefault
system.gpu.shader_mmu.pagefaultLatency::29            0                       # Latency to complete the pagefault
system.gpu.shader_mmu.pagefaultLatency::30            0                       # Latency to complete the pagefault
system.gpu.shader_mmu.pagefaultLatency::31            0                       # Latency to complete the pagefault
system.gpu.shader_mmu.pagefaultLatency::total            0                       # Latency to complete the pagefault
system.gpu.shader_mmu.concurrentWalks::samples          169                       # Number of outstanding walks
system.gpu.shader_mmu.concurrentWalks::mean            0                       # Number of outstanding walks
system.gpu.shader_mmu.concurrentWalks::gmean            0                       # Number of outstanding walks
system.gpu.shader_mmu.concurrentWalks::stdev            0                       # Number of outstanding walks
system.gpu.shader_mmu.concurrentWalks::0          169    100.00%    100.00% # Number of outstanding walks
system.gpu.shader_mmu.concurrentWalks::1            0      0.00%    100.00% # Number of outstanding walks
system.gpu.shader_mmu.concurrentWalks::2            0      0.00%    100.00% # Number of outstanding walks
system.gpu.shader_mmu.concurrentWalks::3            0      0.00%    100.00% # Number of outstanding walks
system.gpu.shader_mmu.concurrentWalks::4            0      0.00%    100.00% # Number of outstanding walks
system.gpu.shader_mmu.concurrentWalks::5            0      0.00%    100.00% # Number of outstanding walks
system.gpu.shader_mmu.concurrentWalks::6            0      0.00%    100.00% # Number of outstanding walks
system.gpu.shader_mmu.concurrentWalks::7            0      0.00%    100.00% # Number of outstanding walks
system.gpu.shader_mmu.concurrentWalks::8            0      0.00%    100.00% # Number of outstanding walks
system.gpu.shader_mmu.concurrentWalks::9            0      0.00%    100.00% # Number of outstanding walks
system.gpu.shader_mmu.concurrentWalks::10            0      0.00%    100.00% # Number of outstanding walks
system.gpu.shader_mmu.concurrentWalks::11            0      0.00%    100.00% # Number of outstanding walks
system.gpu.shader_mmu.concurrentWalks::12            0      0.00%    100.00% # Number of outstanding walks
system.gpu.shader_mmu.concurrentWalks::13            0      0.00%    100.00% # Number of outstanding walks
system.gpu.shader_mmu.concurrentWalks::14            0      0.00%    100.00% # Number of outstanding walks
system.gpu.shader_mmu.concurrentWalks::15            0      0.00%    100.00% # Number of outstanding walks
system.gpu.shader_mmu.concurrentWalks::total          169                       # Number of outstanding walks
system.gpu.shader_mmu.pagewalkLatency::samples          169                       # Latency to complete the pagewalk
system.gpu.shader_mmu.pagewalkLatency::mean            0                       # Latency to complete the pagewalk
system.gpu.shader_mmu.pagewalkLatency::gmean            0                       # Latency to complete the pagewalk
system.gpu.shader_mmu.pagewalkLatency::stdev            0                       # Latency to complete the pagewalk
system.gpu.shader_mmu.pagewalkLatency::0          169    100.00%    100.00% # Latency to complete the pagewalk
system.gpu.shader_mmu.pagewalkLatency::1            0      0.00%    100.00% # Latency to complete the pagewalk
system.gpu.shader_mmu.pagewalkLatency::2            0      0.00%    100.00% # Latency to complete the pagewalk
system.gpu.shader_mmu.pagewalkLatency::3            0      0.00%    100.00% # Latency to complete the pagewalk
system.gpu.shader_mmu.pagewalkLatency::4            0      0.00%    100.00% # Latency to complete the pagewalk
system.gpu.shader_mmu.pagewalkLatency::5            0      0.00%    100.00% # Latency to complete the pagewalk
system.gpu.shader_mmu.pagewalkLatency::6            0      0.00%    100.00% # Latency to complete the pagewalk
system.gpu.shader_mmu.pagewalkLatency::7            0      0.00%    100.00% # Latency to complete the pagewalk
system.gpu.shader_mmu.pagewalkLatency::8            0      0.00%    100.00% # Latency to complete the pagewalk
system.gpu.shader_mmu.pagewalkLatency::9            0      0.00%    100.00% # Latency to complete the pagewalk
system.gpu.shader_mmu.pagewalkLatency::10            0      0.00%    100.00% # Latency to complete the pagewalk
system.gpu.shader_mmu.pagewalkLatency::11            0      0.00%    100.00% # Latency to complete the pagewalk
system.gpu.shader_mmu.pagewalkLatency::12            0      0.00%    100.00% # Latency to complete the pagewalk
system.gpu.shader_mmu.pagewalkLatency::13            0      0.00%    100.00% # Latency to complete the pagewalk
system.gpu.shader_mmu.pagewalkLatency::14            0      0.00%    100.00% # Latency to complete the pagewalk
system.gpu.shader_mmu.pagewalkLatency::15            0      0.00%    100.00% # Latency to complete the pagewalk
system.gpu.shader_mmu.pagewalkLatency::16            0      0.00%    100.00% # Latency to complete the pagewalk
system.gpu.shader_mmu.pagewalkLatency::17            0      0.00%    100.00% # Latency to complete the pagewalk
system.gpu.shader_mmu.pagewalkLatency::18            0      0.00%    100.00% # Latency to complete the pagewalk
system.gpu.shader_mmu.pagewalkLatency::19            0      0.00%    100.00% # Latency to complete the pagewalk
system.gpu.shader_mmu.pagewalkLatency::20            0      0.00%    100.00% # Latency to complete the pagewalk
system.gpu.shader_mmu.pagewalkLatency::21            0      0.00%    100.00% # Latency to complete the pagewalk
system.gpu.shader_mmu.pagewalkLatency::22            0      0.00%    100.00% # Latency to complete the pagewalk
system.gpu.shader_mmu.pagewalkLatency::23            0      0.00%    100.00% # Latency to complete the pagewalk
system.gpu.shader_mmu.pagewalkLatency::24            0      0.00%    100.00% # Latency to complete the pagewalk
system.gpu.shader_mmu.pagewalkLatency::25            0      0.00%    100.00% # Latency to complete the pagewalk
system.gpu.shader_mmu.pagewalkLatency::26            0      0.00%    100.00% # Latency to complete the pagewalk
system.gpu.shader_mmu.pagewalkLatency::27            0      0.00%    100.00% # Latency to complete the pagewalk
system.gpu.shader_mmu.pagewalkLatency::28            0      0.00%    100.00% # Latency to complete the pagewalk
system.gpu.shader_mmu.pagewalkLatency::29            0      0.00%    100.00% # Latency to complete the pagewalk
system.gpu.shader_mmu.pagewalkLatency::30            0      0.00%    100.00% # Latency to complete the pagewalk
system.gpu.shader_mmu.pagewalkLatency::31            0      0.00%    100.00% # Latency to complete the pagewalk
system.gpu.shader_mmu.pagewalkLatency::total          169                       # Latency to complete the pagewalk
system.gpu.kernels_started                          2                       # Number of kernels started
system.gpu.kernels_completed                        2                       # Number of kernels completed
system.gpu.ce.device_dtb.hits                       0                       # Number of hits in this TLB
system.gpu.ce.device_dtb.misses                     0                       # Number of misses in this TLB
system.gpu.ce.device_dtb.hitRate                  nan                       # Hit rate for this TLB
system.gpu.ce.host_dtb.hits                       409                       # Number of hits in this TLB
system.gpu.ce.host_dtb.misses                     169                       # Number of misses in this TLB
system.gpu.ce.host_dtb.hitRate               0.707612                       # Hit rate for this TLB
system.gpu.shader_cores0.itb.hits                   0                       # Number of hits in this TLB
system.gpu.shader_cores0.itb.misses                 0                       # Number of misses in this TLB
system.gpu.shader_cores0.itb.hitRate              nan                       # Hit rate for this TLB
system.gpu.shader_cores0.local_loads                0                       # Number of loads from local space
system.gpu.shader_cores0.local_stores               0                       # Number of stores to local space
system.gpu.shader_cores0.shared_loads            5056                       # Number of loads from shared space
system.gpu.shader_cores0.shared_stores           3072                       # Number of stores to shared space
system.gpu.shader_cores0.param_kernel_loads         7296                       # Number of loads from kernel parameter space
system.gpu.shader_cores0.param_local_loads            0                       # Number of loads from local parameter space
system.gpu.shader_cores0.param_local_stores            0                       # Number of stores to local parameter space
system.gpu.shader_cores0.const_loads                0                       # Number of loads from constant space
system.gpu.shader_cores0.tex_loads                  0                       # Number of loads from texture space
system.gpu.shader_cores0.global_loads            8256                       # Number of loads from global space
system.gpu.shader_cores0.global_stores           3136                       # Number of stores to global space
system.gpu.shader_cores0.surf_loads                 0                       # Number of loads from surface space
system.gpu.shader_cores0.generic_loads              0                       # Number of loads from generic spaces (global, shared, local)
system.gpu.shader_cores0.generic_stores             0                       # Number of stores to generic spaces (global, shared, local)
system.gpu.shader_cores0.inst_cache_requests           12                       # Number of instruction cache requests sent
system.gpu.shader_cores0.inst_cache_retries            0                       # Number of instruction cache retries
system.gpu.shader_cores0.inst_counts::0             0                       # Inst counts: 1: ALU, 2: MAD, 3: CTRL, 4: SFU, 5: MEM, 6: TEX, 7: NOP
system.gpu.shader_cores0.inst_counts::1        130176                       # Inst counts: 1: ALU, 2: MAD, 3: CTRL, 4: SFU, 5: MEM, 6: TEX, 7: NOP
system.gpu.shader_cores0.inst_counts::2          2048                       # Inst counts: 1: ALU, 2: MAD, 3: CTRL, 4: SFU, 5: MEM, 6: TEX, 7: NOP
system.gpu.shader_cores0.inst_counts::3         20416                       # Inst counts: 1: ALU, 2: MAD, 3: CTRL, 4: SFU, 5: MEM, 6: TEX, 7: NOP
system.gpu.shader_cores0.inst_counts::4          6144                       # Inst counts: 1: ALU, 2: MAD, 3: CTRL, 4: SFU, 5: MEM, 6: TEX, 7: NOP
system.gpu.shader_cores0.inst_counts::5         26816                       # Inst counts: 1: ALU, 2: MAD, 3: CTRL, 4: SFU, 5: MEM, 6: TEX, 7: NOP
system.gpu.shader_cores0.inst_counts::6             0                       # Inst counts: 1: ALU, 2: MAD, 3: CTRL, 4: SFU, 5: MEM, 6: TEX, 7: NOP
system.gpu.shader_cores0.inst_counts::7             0                       # Inst counts: 1: ALU, 2: MAD, 3: CTRL, 4: SFU, 5: MEM, 6: TEX, 7: NOP
system.gpu.shader_cores0.activeCycles            8369                       # Number of cycles this shader was executing a CTA
system.gpu.shader_cores0.notStalledCycles         4656                       # Number of cycles this shader was actually executing at least one instance
system.gpu.shader_cores0.instInstances         185600                       # Total instructions executed by all PEs in the core
system.gpu.shader_cores0.instPerCycle       22.177082                       # Instruction instances per cycle
system.gpu.shader_cores0.kernels_completed            2                       # Number of kernels completed
system.gpu.shader_cores0.lsq.data_tlb.hits            0                       # Number of hits in this TLB
system.gpu.shader_cores0.lsq.data_tlb.misses            0                       # Number of misses in this TLB
system.gpu.shader_cores0.lsq.data_tlb.hitRate          nan                       # Hit rate for this TLB
system.gpu.shader_cores0.lsq.warpInstBufActive::samples     11119049                       # Histogram of number of active warp inst buffers at a given time
system.gpu.shader_cores0.lsq.warpInstBufActive::mean    16.612132                       # Histogram of number of active warp inst buffers at a given time
system.gpu.shader_cores0.lsq.warpInstBufActive::gmean          nan                       # Histogram of number of active warp inst buffers at a given time
system.gpu.shader_cores0.lsq.warpInstBufActive::stdev    15.697818                       # Histogram of number of active warp inst buffers at a given time
system.gpu.shader_cores0.lsq.warpInstBufActive::0      2733677     24.59%     24.59% # Histogram of number of active warp inst buffers at a given time
system.gpu.shader_cores0.lsq.warpInstBufActive::1       834536      7.51%     32.09% # Histogram of number of active warp inst buffers at a given time
system.gpu.shader_cores0.lsq.warpInstBufActive::2       328670      2.96%     35.05% # Histogram of number of active warp inst buffers at a given time
system.gpu.shader_cores0.lsq.warpInstBufActive::3       185770      1.67%     36.72% # Histogram of number of active warp inst buffers at a given time
system.gpu.shader_cores0.lsq.warpInstBufActive::4       151474      1.36%     38.08% # Histogram of number of active warp inst buffers at a given time
system.gpu.shader_cores0.lsq.warpInstBufActive::5       112891      1.02%     39.10% # Histogram of number of active warp inst buffers at a given time
system.gpu.shader_cores0.lsq.warpInstBufActive::6       142900      1.29%     40.38% # Histogram of number of active warp inst buffers at a given time
system.gpu.shader_cores0.lsq.warpInstBufActive::7       108604      0.98%     41.36% # Histogram of number of active warp inst buffers at a given time
system.gpu.shader_cores0.lsq.warpInstBufActive::8        98601      0.89%     42.24% # Histogram of number of active warp inst buffers at a given time
system.gpu.shader_cores0.lsq.warpInstBufActive::9        35725      0.32%     42.57% # Histogram of number of active warp inst buffers at a given time
system.gpu.shader_cores0.lsq.warpInstBufActive::10        67163      0.60%     43.17% # Histogram of number of active warp inst buffers at a given time
system.gpu.shader_cores0.lsq.warpInstBufActive::11        84311      0.76%     43.93% # Histogram of number of active warp inst buffers at a given time
system.gpu.shader_cores0.lsq.warpInstBufActive::12       130039      1.17%     45.10% # Histogram of number of active warp inst buffers at a given time
system.gpu.shader_cores0.lsq.warpInstBufActive::13        98601      0.89%     45.98% # Histogram of number of active warp inst buffers at a given time
system.gpu.shader_cores0.lsq.warpInstBufActive::14       210063      1.89%     47.87% # Histogram of number of active warp inst buffers at a given time
system.gpu.shader_cores0.lsq.warpInstBufActive::15       211492      1.90%     49.78% # Histogram of number of active warp inst buffers at a given time
system.gpu.shader_cores0.lsq.warpInstBufActive::16       470141      4.23%     54.00% # Histogram of number of active warp inst buffers at a given time
system.gpu.shader_cores0.lsq.warpInstBufActive::17        71450      0.64%     54.65% # Histogram of number of active warp inst buffers at a given time
system.gpu.shader_cores0.lsq.warpInstBufActive::18       244359      2.20%     56.84% # Histogram of number of active warp inst buffers at a given time
system.gpu.shader_cores0.lsq.warpInstBufActive::19       134326      1.21%     58.05% # Histogram of number of active warp inst buffers at a given time
system.gpu.shader_cores0.lsq.warpInstBufActive::20       108604      0.98%     59.03% # Histogram of number of active warp inst buffers at a given time
system.gpu.shader_cores0.lsq.warpInstBufActive::21       180054      1.62%     60.65% # Histogram of number of active warp inst buffers at a given time
system.gpu.shader_cores0.lsq.warpInstBufActive::22       107175      0.96%     61.61% # Histogram of number of active warp inst buffers at a given time
system.gpu.shader_cores0.lsq.warpInstBufActive::23        68592      0.62%     62.23% # Histogram of number of active warp inst buffers at a given time
system.gpu.shader_cores0.lsq.warpInstBufActive::24       142900      1.29%     63.51% # Histogram of number of active warp inst buffers at a given time
system.gpu.shader_cores0.lsq.warpInstBufActive::25       160048      1.44%     64.95% # Histogram of number of active warp inst buffers at a given time
system.gpu.shader_cores0.lsq.warpInstBufActive::26       201489      1.81%     66.77% # Histogram of number of active warp inst buffers at a given time
system.gpu.shader_cores0.lsq.warpInstBufActive::27       184341      1.66%     68.42% # Histogram of number of active warp inst buffers at a given time
system.gpu.shader_cores0.lsq.warpInstBufActive::28       208634      1.88%     70.30% # Histogram of number of active warp inst buffers at a given time
system.gpu.shader_cores0.lsq.warpInstBufActive::29       197202      1.77%     72.07% # Histogram of number of active warp inst buffers at a given time
system.gpu.shader_cores0.lsq.warpInstBufActive::30       305806      2.75%     74.82% # Histogram of number of active warp inst buffers at a given time
system.gpu.shader_cores0.lsq.warpInstBufActive::31       410123      3.69%     78.51% # Histogram of number of active warp inst buffers at a given time
system.gpu.shader_cores0.lsq.warpInstBufActive::32      1074608      9.66%     88.18% # Histogram of number of active warp inst buffers at a given time
system.gpu.shader_cores0.lsq.warpInstBufActive::33       131468      1.18%     89.36% # Histogram of number of active warp inst buffers at a given time
system.gpu.shader_cores0.lsq.warpInstBufActive::34       142900      1.29%     90.64% # Histogram of number of active warp inst buffers at a given time
system.gpu.shader_cores0.lsq.warpInstBufActive::35        78595      0.71%     91.35% # Histogram of number of active warp inst buffers at a given time
system.gpu.shader_cores0.lsq.warpInstBufActive::36        44299      0.40%     91.75% # Histogram of number of active warp inst buffers at a given time
system.gpu.shader_cores0.lsq.warpInstBufActive::37        40012      0.36%     92.11% # Histogram of number of active warp inst buffers at a given time
system.gpu.shader_cores0.lsq.warpInstBufActive::38       130039      1.17%     93.28% # Histogram of number of active warp inst buffers at a given time
system.gpu.shader_cores0.lsq.warpInstBufActive::39        75737      0.68%     93.96% # Histogram of number of active warp inst buffers at a given time
system.gpu.shader_cores0.lsq.warpInstBufActive::40        75737      0.68%     94.64% # Histogram of number of active warp inst buffers at a given time
system.gpu.shader_cores0.lsq.warpInstBufActive::41        11432      0.10%     94.74% # Histogram of number of active warp inst buffers at a given time
system.gpu.shader_cores0.lsq.warpInstBufActive::42        18577      0.17%     94.91% # Histogram of number of active warp inst buffers at a given time
system.gpu.shader_cores0.lsq.warpInstBufActive::43        40012      0.36%     95.27% # Histogram of number of active warp inst buffers at a given time
system.gpu.shader_cores0.lsq.warpInstBufActive::44        48586      0.44%     95.71% # Histogram of number of active warp inst buffers at a given time
system.gpu.shader_cores0.lsq.warpInstBufActive::45        15719      0.14%     95.85% # Histogram of number of active warp inst buffers at a given time
system.gpu.shader_cores0.lsq.warpInstBufActive::46        28580      0.26%     96.11% # Histogram of number of active warp inst buffers at a given time
system.gpu.shader_cores0.lsq.warpInstBufActive::47        32867      0.30%     96.40% # Histogram of number of active warp inst buffers at a given time
system.gpu.shader_cores0.lsq.warpInstBufActive::48        51444      0.46%     96.86% # Histogram of number of active warp inst buffers at a given time
system.gpu.shader_cores0.lsq.warpInstBufActive::49         4287      0.04%     96.90% # Histogram of number of active warp inst buffers at a given time
system.gpu.shader_cores0.lsq.warpInstBufActive::50        40012      0.36%     97.26% # Histogram of number of active warp inst buffers at a given time
system.gpu.shader_cores0.lsq.warpInstBufActive::51        10003      0.09%     97.35% # Histogram of number of active warp inst buffers at a given time
system.gpu.shader_cores0.lsq.warpInstBufActive::52        38583      0.35%     97.70% # Histogram of number of active warp inst buffers at a given time
system.gpu.shader_cores0.lsq.warpInstBufActive::53         2858      0.03%     97.73% # Histogram of number of active warp inst buffers at a given time
system.gpu.shader_cores0.lsq.warpInstBufActive::54        32867      0.30%     98.02% # Histogram of number of active warp inst buffers at a given time
system.gpu.shader_cores0.lsq.warpInstBufActive::55         2858      0.03%     98.05% # Histogram of number of active warp inst buffers at a given time
system.gpu.shader_cores0.lsq.warpInstBufActive::56        12861      0.12%     98.16% # Histogram of number of active warp inst buffers at a given time
system.gpu.shader_cores0.lsq.warpInstBufActive::57         2858      0.03%     98.19% # Histogram of number of active warp inst buffers at a given time
system.gpu.shader_cores0.lsq.warpInstBufActive::58        35725      0.32%     98.51% # Histogram of number of active warp inst buffers at a given time
system.gpu.shader_cores0.lsq.warpInstBufActive::59         2858      0.03%     98.53% # Histogram of number of active warp inst buffers at a given time
system.gpu.shader_cores0.lsq.warpInstBufActive::60        20006      0.18%     98.71% # Histogram of number of active warp inst buffers at a given time
system.gpu.shader_cores0.lsq.warpInstBufActive::61        12861      0.12%     98.83% # Histogram of number of active warp inst buffers at a given time
system.gpu.shader_cores0.lsq.warpInstBufActive::62        90027      0.81%     99.64% # Histogram of number of active warp inst buffers at a given time
system.gpu.shader_cores0.lsq.warpInstBufActive::63         2858      0.03%     99.67% # Histogram of number of active warp inst buffers at a given time
system.gpu.shader_cores0.lsq.warpInstBufActive::64        37154      0.33%    100.00% # Histogram of number of active warp inst buffers at a given time
system.gpu.shader_cores0.lsq.warpInstBufActive::total     11119049                       # Histogram of number of active warp inst buffers at a given time
system.gpu.shader_cores0.lsq.cacheAccesses     0.014056                       # Average number of concurrent outstanding cache accesses
system.gpu.shader_cores0.lsq.writebackBlockedCycles          120                       # Number of cycles blocked for core writeback stage
system.gpu.shader_cores0.lsq.mshrHitQueued          332                       # Number of hits on blocked lines in MSHRs
system.gpu.shader_cores0.lsq.mshrsFullCycles            0                       # Number of cycles stalled waiting for an MSHR
system.gpu.shader_cores0.lsq.mshrsFullCount            0                       # Number of times MSHRs filled
system.gpu.shader_cores0.lsq.warpCoalescedAccesses::samples          416                       # Number of coalesced accesses per warp instruction
system.gpu.shader_cores0.lsq.warpCoalescedAccesses::mean     1.769231                       # Number of coalesced accesses per warp instruction
system.gpu.shader_cores0.lsq.warpCoalescedAccesses::gmean     1.608176                       # Number of coalesced accesses per warp instruction
system.gpu.shader_cores0.lsq.warpCoalescedAccesses::stdev     0.763388                       # Number of coalesced accesses per warp instruction
system.gpu.shader_cores0.lsq.warpCoalescedAccesses::0            0      0.00%      0.00% # Number of coalesced accesses per warp instruction
system.gpu.shader_cores0.lsq.warpCoalescedAccesses::1          180     43.27%     43.27% # Number of coalesced accesses per warp instruction
system.gpu.shader_cores0.lsq.warpCoalescedAccesses::2          152     36.54%     79.81% # Number of coalesced accesses per warp instruction
system.gpu.shader_cores0.lsq.warpCoalescedAccesses::3           84     20.19%    100.00% # Number of coalesced accesses per warp instruction
system.gpu.shader_cores0.lsq.warpCoalescedAccesses::4            0      0.00%    100.00% # Number of coalesced accesses per warp instruction
system.gpu.shader_cores0.lsq.warpCoalescedAccesses::5            0      0.00%    100.00% # Number of coalesced accesses per warp instruction
system.gpu.shader_cores0.lsq.warpCoalescedAccesses::6            0      0.00%    100.00% # Number of coalesced accesses per warp instruction
system.gpu.shader_cores0.lsq.warpCoalescedAccesses::7            0      0.00%    100.00% # Number of coalesced accesses per warp instruction
system.gpu.shader_cores0.lsq.warpCoalescedAccesses::8            0      0.00%    100.00% # Number of coalesced accesses per warp instruction
system.gpu.shader_cores0.lsq.warpCoalescedAccesses::9            0      0.00%    100.00% # Number of coalesced accesses per warp instruction
system.gpu.shader_cores0.lsq.warpCoalescedAccesses::10            0      0.00%    100.00% # Number of coalesced accesses per warp instruction
system.gpu.shader_cores0.lsq.warpCoalescedAccesses::11            0      0.00%    100.00% # Number of coalesced accesses per warp instruction
system.gpu.shader_cores0.lsq.warpCoalescedAccesses::12            0      0.00%    100.00% # Number of coalesced accesses per warp instruction
system.gpu.shader_cores0.lsq.warpCoalescedAccesses::13            0      0.00%    100.00% # Number of coalesced accesses per warp instruction
system.gpu.shader_cores0.lsq.warpCoalescedAccesses::14            0      0.00%    100.00% # Number of coalesced accesses per warp instruction
system.gpu.shader_cores0.lsq.warpCoalescedAccesses::15            0      0.00%    100.00% # Number of coalesced accesses per warp instruction
system.gpu.shader_cores0.lsq.warpCoalescedAccesses::16            0      0.00%    100.00% # Number of coalesced accesses per warp instruction
system.gpu.shader_cores0.lsq.warpCoalescedAccesses::17            0      0.00%    100.00% # Number of coalesced accesses per warp instruction
system.gpu.shader_cores0.lsq.warpCoalescedAccesses::18            0      0.00%    100.00% # Number of coalesced accesses per warp instruction
system.gpu.shader_cores0.lsq.warpCoalescedAccesses::19            0      0.00%    100.00% # Number of coalesced accesses per warp instruction
system.gpu.shader_cores0.lsq.warpCoalescedAccesses::20            0      0.00%    100.00% # Number of coalesced accesses per warp instruction
system.gpu.shader_cores0.lsq.warpCoalescedAccesses::21            0      0.00%    100.00% # Number of coalesced accesses per warp instruction
system.gpu.shader_cores0.lsq.warpCoalescedAccesses::22            0      0.00%    100.00% # Number of coalesced accesses per warp instruction
system.gpu.shader_cores0.lsq.warpCoalescedAccesses::23            0      0.00%    100.00% # Number of coalesced accesses per warp instruction
system.gpu.shader_cores0.lsq.warpCoalescedAccesses::24            0      0.00%    100.00% # Number of coalesced accesses per warp instruction
system.gpu.shader_cores0.lsq.warpCoalescedAccesses::25            0      0.00%    100.00% # Number of coalesced accesses per warp instruction
system.gpu.shader_cores0.lsq.warpCoalescedAccesses::26            0      0.00%    100.00% # Number of coalesced accesses per warp instruction
system.gpu.shader_cores0.lsq.warpCoalescedAccesses::27            0      0.00%    100.00% # Number of coalesced accesses per warp instruction
system.gpu.shader_cores0.lsq.warpCoalescedAccesses::28            0      0.00%    100.00% # Number of coalesced accesses per warp instruction
system.gpu.shader_cores0.lsq.warpCoalescedAccesses::29            0      0.00%    100.00% # Number of coalesced accesses per warp instruction
system.gpu.shader_cores0.lsq.warpCoalescedAccesses::30            0      0.00%    100.00% # Number of coalesced accesses per warp instruction
system.gpu.shader_cores0.lsq.warpCoalescedAccesses::31            0      0.00%    100.00% # Number of coalesced accesses per warp instruction
system.gpu.shader_cores0.lsq.warpCoalescedAccesses::32            0      0.00%    100.00% # Number of coalesced accesses per warp instruction
system.gpu.shader_cores0.lsq.warpCoalescedAccesses::total          416                       # Number of coalesced accesses per warp instruction
system.gpu.shader_cores0.lsq.warpLatencyRead::samples          288                       # Latency in cycles for whole warp to finish the read
system.gpu.shader_cores0.lsq.warpLatencyRead::mean   220.680556                       # Latency in cycles for whole warp to finish the read
system.gpu.shader_cores0.lsq.warpLatencyRead::gmean    93.837024                       # Latency in cycles for whole warp to finish the read
system.gpu.shader_cores0.lsq.warpLatencyRead::stdev   204.856886                       # Latency in cycles for whole warp to finish the read
system.gpu.shader_cores0.lsq.warpLatencyRead::0-63          103     35.76%     35.76% # Latency in cycles for whole warp to finish the read
system.gpu.shader_cores0.lsq.warpLatencyRead::64-127           14      4.86%     40.62% # Latency in cycles for whole warp to finish the read
system.gpu.shader_cores0.lsq.warpLatencyRead::128-191           44     15.28%     55.90% # Latency in cycles for whole warp to finish the read
system.gpu.shader_cores0.lsq.warpLatencyRead::192-255           24      8.33%     64.24% # Latency in cycles for whole warp to finish the read
system.gpu.shader_cores0.lsq.warpLatencyRead::256-319           10      3.47%     67.71% # Latency in cycles for whole warp to finish the read
system.gpu.shader_cores0.lsq.warpLatencyRead::320-383           20      6.94%     74.65% # Latency in cycles for whole warp to finish the read
system.gpu.shader_cores0.lsq.warpLatencyRead::384-447           16      5.56%     80.21% # Latency in cycles for whole warp to finish the read
system.gpu.shader_cores0.lsq.warpLatencyRead::448-511           19      6.60%     86.81% # Latency in cycles for whole warp to finish the read
system.gpu.shader_cores0.lsq.warpLatencyRead::512-575           19      6.60%     93.40% # Latency in cycles for whole warp to finish the read
system.gpu.shader_cores0.lsq.warpLatencyRead::576-639           15      5.21%     98.61% # Latency in cycles for whole warp to finish the read
system.gpu.shader_cores0.lsq.warpLatencyRead::640-703            4      1.39%    100.00% # Latency in cycles for whole warp to finish the read
system.gpu.shader_cores0.lsq.warpLatencyRead::704-767            0      0.00%    100.00% # Latency in cycles for whole warp to finish the read
system.gpu.shader_cores0.lsq.warpLatencyRead::768-831            0      0.00%    100.00% # Latency in cycles for whole warp to finish the read
system.gpu.shader_cores0.lsq.warpLatencyRead::832-895            0      0.00%    100.00% # Latency in cycles for whole warp to finish the read
system.gpu.shader_cores0.lsq.warpLatencyRead::896-959            0      0.00%    100.00% # Latency in cycles for whole warp to finish the read
system.gpu.shader_cores0.lsq.warpLatencyRead::960-1023            0      0.00%    100.00% # Latency in cycles for whole warp to finish the read
system.gpu.shader_cores0.lsq.warpLatencyRead::total          288                       # Latency in cycles for whole warp to finish the read
system.gpu.shader_cores0.lsq.warpLatencyWrite::samples          128                       # Latency in cycles for whole warp to finish the write
system.gpu.shader_cores0.lsq.warpLatencyWrite::mean   345.500000                       # Latency in cycles for whole warp to finish the write
system.gpu.shader_cores0.lsq.warpLatencyWrite::gmean   319.864235                       # Latency in cycles for whole warp to finish the write
system.gpu.shader_cores0.lsq.warpLatencyWrite::stdev   134.799706                       # Latency in cycles for whole warp to finish the write
system.gpu.shader_cores0.lsq.warpLatencyWrite::0-63            0      0.00%      0.00% # Latency in cycles for whole warp to finish the write
system.gpu.shader_cores0.lsq.warpLatencyWrite::64-127            0      0.00%      0.00% # Latency in cycles for whole warp to finish the write
system.gpu.shader_cores0.lsq.warpLatencyWrite::128-191           15     11.72%     11.72% # Latency in cycles for whole warp to finish the write
system.gpu.shader_cores0.lsq.warpLatencyWrite::192-255           25     19.53%     31.25% # Latency in cycles for whole warp to finish the write
system.gpu.shader_cores0.lsq.warpLatencyWrite::256-319           16     12.50%     43.75% # Latency in cycles for whole warp to finish the write
system.gpu.shader_cores0.lsq.warpLatencyWrite::320-383           23     17.97%     61.72% # Latency in cycles for whole warp to finish the write
system.gpu.shader_cores0.lsq.warpLatencyWrite::384-447           22     17.19%     78.91% # Latency in cycles for whole warp to finish the write
system.gpu.shader_cores0.lsq.warpLatencyWrite::448-511           13     10.16%     89.06% # Latency in cycles for whole warp to finish the write
system.gpu.shader_cores0.lsq.warpLatencyWrite::512-575            7      5.47%     94.53% # Latency in cycles for whole warp to finish the write
system.gpu.shader_cores0.lsq.warpLatencyWrite::576-639            3      2.34%     96.88% # Latency in cycles for whole warp to finish the write
system.gpu.shader_cores0.lsq.warpLatencyWrite::640-703            3      2.34%     99.22% # Latency in cycles for whole warp to finish the write
system.gpu.shader_cores0.lsq.warpLatencyWrite::704-767            1      0.78%    100.00% # Latency in cycles for whole warp to finish the write
system.gpu.shader_cores0.lsq.warpLatencyWrite::768-831            0      0.00%    100.00% # Latency in cycles for whole warp to finish the write
system.gpu.shader_cores0.lsq.warpLatencyWrite::832-895            0      0.00%    100.00% # Latency in cycles for whole warp to finish the write
system.gpu.shader_cores0.lsq.warpLatencyWrite::896-959            0      0.00%    100.00% # Latency in cycles for whole warp to finish the write
system.gpu.shader_cores0.lsq.warpLatencyWrite::960-1023            0      0.00%    100.00% # Latency in cycles for whole warp to finish the write
system.gpu.shader_cores0.lsq.warpLatencyWrite::total          128                       # Latency in cycles for whole warp to finish the write
system.gpu.shader_cores0.lsq.warpLatencyFence::samples          288                       # Latency in cycles for whole warp to finish the fence
system.gpu.shader_cores0.lsq.warpLatencyFence::mean    74.579861                       # Latency in cycles for whole warp to finish the fence
system.gpu.shader_cores0.lsq.warpLatencyFence::gmean    14.465478                       # Latency in cycles for whole warp to finish the fence
system.gpu.shader_cores0.lsq.warpLatencyFence::stdev   138.987380                       # Latency in cycles for whole warp to finish the fence
system.gpu.shader_cores0.lsq.warpLatencyFence::0-63          224     77.78%     77.78% # Latency in cycles for whole warp to finish the fence
system.gpu.shader_cores0.lsq.warpLatencyFence::64-127            0      0.00%     77.78% # Latency in cycles for whole warp to finish the fence
system.gpu.shader_cores0.lsq.warpLatencyFence::128-191           10      3.47%     81.25% # Latency in cycles for whole warp to finish the fence
system.gpu.shader_cores0.lsq.warpLatencyFence::192-255           15      5.21%     86.46% # Latency in cycles for whole warp to finish the fence
system.gpu.shader_cores0.lsq.warpLatencyFence::256-319            8      2.78%     89.24% # Latency in cycles for whole warp to finish the fence
system.gpu.shader_cores0.lsq.warpLatencyFence::320-383            7      2.43%     91.67% # Latency in cycles for whole warp to finish the fence
system.gpu.shader_cores0.lsq.warpLatencyFence::384-447           15      5.21%     96.88% # Latency in cycles for whole warp to finish the fence
system.gpu.shader_cores0.lsq.warpLatencyFence::448-511            6      2.08%     98.96% # Latency in cycles for whole warp to finish the fence
system.gpu.shader_cores0.lsq.warpLatencyFence::512-575            3      1.04%    100.00% # Latency in cycles for whole warp to finish the fence
system.gpu.shader_cores0.lsq.warpLatencyFence::576-639            0      0.00%    100.00% # Latency in cycles for whole warp to finish the fence
system.gpu.shader_cores0.lsq.warpLatencyFence::640-703            0      0.00%    100.00% # Latency in cycles for whole warp to finish the fence
system.gpu.shader_cores0.lsq.warpLatencyFence::704-767            0      0.00%    100.00% # Latency in cycles for whole warp to finish the fence
system.gpu.shader_cores0.lsq.warpLatencyFence::768-831            0      0.00%    100.00% # Latency in cycles for whole warp to finish the fence
system.gpu.shader_cores0.lsq.warpLatencyFence::832-895            0      0.00%    100.00% # Latency in cycles for whole warp to finish the fence
system.gpu.shader_cores0.lsq.warpLatencyFence::896-959            0      0.00%    100.00% # Latency in cycles for whole warp to finish the fence
system.gpu.shader_cores0.lsq.warpLatencyFence::960-1023            0      0.00%    100.00% # Latency in cycles for whole warp to finish the fence
system.gpu.shader_cores0.lsq.warpLatencyFence::total          288                       # Latency in cycles for whole warp to finish the fence
system.gpu.shader_cores0.lsq.warpLatencyAtomic::samples            0                       # Latency in cycles for whole warp to finish the atomic
system.gpu.shader_cores0.lsq.warpLatencyAtomic::mean          nan                       # Latency in cycles for whole warp to finish the atomic
system.gpu.shader_cores0.lsq.warpLatencyAtomic::gmean          nan                       # Latency in cycles for whole warp to finish the atomic
system.gpu.shader_cores0.lsq.warpLatencyAtomic::stdev          nan                       # Latency in cycles for whole warp to finish the atomic
system.gpu.shader_cores0.lsq.warpLatencyAtomic::0            0                       # Latency in cycles for whole warp to finish the atomic
system.gpu.shader_cores0.lsq.warpLatencyAtomic::1            0                       # Latency in cycles for whole warp to finish the atomic
system.gpu.shader_cores0.lsq.warpLatencyAtomic::2            0                       # Latency in cycles for whole warp to finish the atomic
system.gpu.shader_cores0.lsq.warpLatencyAtomic::3            0                       # Latency in cycles for whole warp to finish the atomic
system.gpu.shader_cores0.lsq.warpLatencyAtomic::4            0                       # Latency in cycles for whole warp to finish the atomic
system.gpu.shader_cores0.lsq.warpLatencyAtomic::5            0                       # Latency in cycles for whole warp to finish the atomic
system.gpu.shader_cores0.lsq.warpLatencyAtomic::6            0                       # Latency in cycles for whole warp to finish the atomic
system.gpu.shader_cores0.lsq.warpLatencyAtomic::7            0                       # Latency in cycles for whole warp to finish the atomic
system.gpu.shader_cores0.lsq.warpLatencyAtomic::8            0                       # Latency in cycles for whole warp to finish the atomic
system.gpu.shader_cores0.lsq.warpLatencyAtomic::9            0                       # Latency in cycles for whole warp to finish the atomic
system.gpu.shader_cores0.lsq.warpLatencyAtomic::10            0                       # Latency in cycles for whole warp to finish the atomic
system.gpu.shader_cores0.lsq.warpLatencyAtomic::11            0                       # Latency in cycles for whole warp to finish the atomic
system.gpu.shader_cores0.lsq.warpLatencyAtomic::12            0                       # Latency in cycles for whole warp to finish the atomic
system.gpu.shader_cores0.lsq.warpLatencyAtomic::13            0                       # Latency in cycles for whole warp to finish the atomic
system.gpu.shader_cores0.lsq.warpLatencyAtomic::14            0                       # Latency in cycles for whole warp to finish the atomic
system.gpu.shader_cores0.lsq.warpLatencyAtomic::15            0                       # Latency in cycles for whole warp to finish the atomic
system.gpu.shader_cores0.lsq.warpLatencyAtomic::total            0                       # Latency in cycles for whole warp to finish the atomic
system.gpu.shader_cores0.lsq.tlbMissLatency::samples            0                       # Latency in cycles for TLB miss
system.gpu.shader_cores0.lsq.tlbMissLatency::mean          nan                       # Latency in cycles for TLB miss
[...]
system.ruby.Locked_RMW_Read.L1Cache.hit_type_mach_latency_hist::total           10                      
system.ruby.Locked_RMW_Write.L1Cache.hit_type_mach_latency_hist::bucket_size            1                      
system.ruby.Locked_RMW_Write.L1Cache.hit_type_mach_latency_hist::max_bucket            9                      
system.ruby.Locked_RMW_Write.L1Cache.hit_type_mach_latency_hist::samples           10                      
system.ruby.Locked_RMW_Write.L1Cache.hit_type_mach_latency_hist::mean            1                      
system.ruby.Locked_RMW_Write.L1Cache.hit_type_mach_latency_hist::gmean            1                      
system.ruby.Locked_RMW_Write.L1Cache.hit_type_mach_latency_hist |           0      0.00%      0.00% |          10    100.00%    100.00% |           0      0.00%    100.00% |           0      0.00%    100.00% |           0      0.00%    100.00% |           0      0.00%    100.00% |           0      0.00%    100.00% |           0      0.00%    100.00% |           0      0.00%    100.00% |           0      0.00%    100.00%
system.ruby.Locked_RMW_Write.L1Cache.hit_type_mach_latency_hist::total           10                      
system.ruby.GPUCopyDMA_Controller.ReadRequest |         423     73.31%     73.31% |         154     26.69%    100.00%
system.ruby.GPUCopyDMA_Controller.ReadRequest::total          577                      
system.ruby.GPUCopyDMA_Controller.WriteRequest |         155     26.91%     26.91% |         421     73.09%    100.00%
system.ruby.GPUCopyDMA_Controller.WriteRequest::total          576                      
system.ruby.GPUCopyDMA_Controller.Data   |         423     73.31%     73.31% |         154     26.69%    100.00%
system.ruby.GPUCopyDMA_Controller.Data::total          577                      
system.ruby.GPUCopyDMA_Controller.Ack    |         155     26.91%     26.91% |         421     73.09%    100.00%
system.ruby.GPUCopyDMA_Controller.Ack::total          576                      
system.ruby.GPUCopyDMA_Controller.READY.ReadRequest |         423     73.31%     73.31% |         154     26.69%    100.00%
system.ruby.GPUCopyDMA_Controller.READY.ReadRequest::total          577                      
system.ruby.GPUCopyDMA_Controller.READY.WriteRequest |         155     26.91%     26.91% |         421     73.09%    100.00%
system.ruby.GPUCopyDMA_Controller.READY.WriteRequest::total          576                      
system.ruby.GPUCopyDMA_Controller.BUSY_RD.Data |         423     73.31%     73.31% |         154     26.69%    100.00%
system.ruby.GPUCopyDMA_Controller.BUSY_RD.Data::total          577                      
system.ruby.GPUCopyDMA_Controller.BUSY_WR.Ack |         155     26.91%     26.91% |         421     73.09%    100.00%
system.ruby.GPUCopyDMA_Controller.BUSY_WR.Ack::total          576                      
system.ruby.Directory_Controller.GETX    |         784     98.99%     98.99% |           8      1.01%    100.00%
system.ruby.Directory_Controller.GETX::total          792                      
system.ruby.Directory_Controller.GETS    |         648     59.89%     59.89% |         434     40.11%    100.00%
system.ruby.Directory_Controller.GETS::total         1082                      
system.ruby.Directory_Controller.UnblockM |        1432     76.41%     76.41% |         442     23.59%    100.00%
system.ruby.Directory_Controller.UnblockM::total         1874                      
system.ruby.Directory_Controller.DMA_READ |         423     73.31%     73.31% |         154     26.69%    100.00%
system.ruby.Directory_Controller.DMA_READ::total          577                      
system.ruby.Directory_Controller.DMA_WRITE |         155     26.91%     26.91% |         421     73.09%    100.00%
system.ruby.Directory_Controller.DMA_WRITE::total          576                      
system.ruby.Directory_Controller.Memory_Data |        1564     77.97%     77.97% |         442     22.03%    100.00%
system.ruby.Directory_Controller.Memory_Data::total         2006                      
system.ruby.Directory_Controller.Memory_Ack |         155     26.91%     26.91% |         421     73.09%    100.00%
system.ruby.Directory_Controller.Memory_Ack::total          576                      
system.ruby.Directory_Controller.Ack     |         855     49.88%     49.88% |         859     50.12%    100.00%
system.ruby.Directory_Controller.Ack::total         1714                      
system.ruby.Directory_Controller.Shared_Data |           6     40.00%     40.00% |           9     60.00%    100.00%
system.ruby.Directory_Controller.Shared_Data::total           15                      
system.ruby.Directory_Controller.Data    |           5    100.00%    100.00% |           0      0.00%    100.00%
system.ruby.Directory_Controller.Data::total            5                      
system.ruby.Directory_Controller.Exclusive_Data |         290     50.70%     50.70% |         282     49.30%    100.00%
system.ruby.Directory_Controller.Exclusive_Data::total          572                      
system.ruby.Directory_Controller.All_acks_and_shared_data |           6     40.00%     40.00% |           9     60.00%    100.00%
system.ruby.Directory_Controller.All_acks_and_shared_data::total           15                      
system.ruby.Directory_Controller.All_acks_and_data_no_sharers |         572     50.26%     50.26% |         566     49.74%    100.00%
system.ruby.Directory_Controller.All_acks_and_data_no_sharers::total         1138                      
system.ruby.Directory_Controller.NO.DMA_READ |         290     65.32%     65.32% |         154     34.68%    100.00%
system.ruby.Directory_Controller.NO.DMA_READ::total          444                      
system.ruby.Directory_Controller.NO.DMA_WRITE |           5      3.52%      3.52% |         137     96.48%    100.00%
system.ruby.Directory_Controller.NO.DMA_WRITE::total          142                      
system.ruby.Directory_Controller.S.DMA_READ |           1    100.00%    100.00% |           0      0.00%    100.00%
system.ruby.Directory_Controller.S.DMA_READ::total            1                      
system.ruby.Directory_Controller.S.DMA_WRITE |           5    100.00%    100.00% |           0      0.00%    100.00%
system.ruby.Directory_Controller.S.DMA_WRITE::total            5                      
system.ruby.Directory_Controller.E.GETX  |         784     98.99%     98.99% |           8      1.01%    100.00%
system.ruby.Directory_Controller.E.GETX::total          792                      
system.ruby.Directory_Controller.E.GETS  |         648     59.89%     59.89% |         434     40.11%    100.00%
system.ruby.Directory_Controller.E.GETS::total         1082                      
system.ruby.Directory_Controller.E.DMA_READ |         132    100.00%    100.00% |           0      0.00%    100.00%
system.ruby.Directory_Controller.E.DMA_READ::total          132                      
system.ruby.Directory_Controller.E.DMA_WRITE |         145     33.80%     33.80% |         284     66.20%    100.00%
system.ruby.Directory_Controller.E.DMA_WRITE::total          429                      
system.ruby.Directory_Controller.NO_B.UnblockM |        1432     76.41%     76.41% |         442     23.59%    100.00%
system.ruby.Directory_Controller.NO_B.UnblockM::total         1874                      
system.ruby.Directory_Controller.NO_B_W.Memory_Data |        1432     76.41%     76.41% |         442     23.59%    100.00%
system.ruby.Directory_Controller.NO_B_W.Memory_Data::total         1874                      
system.ruby.Directory_Controller.NO_DW_B_W.Ack |         300     29.85%     29.85% |         705     70.15%    100.00%
system.ruby.Directory_Controller.NO_DW_B_W.Ack::total         1005                      
system.ruby.Directory_Controller.NO_DW_B_W.Data |           5    100.00%    100.00% |           0      0.00%    100.00%
system.ruby.Directory_Controller.NO_DW_B_W.Data::total            5                      
system.ruby.Directory_Controller.NO_DW_B_W.Exclusive_Data |           5      3.52%      3.52% |         137     96.48%    100.00%
system.ruby.Directory_Controller.NO_DW_B_W.Exclusive_Data::total          142                      
system.ruby.Directory_Controller.NO_DW_B_W.All_acks_and_data_no_sharers |         155     26.91%     26.91% |         421     73.09%    100.00%
system.ruby.Directory_Controller.NO_DW_B_W.All_acks_and_data_no_sharers::total          576                      
system.ruby.Directory_Controller.NO_DR_B_W.Memory_Data |         132    100.00%    100.00% |           0      0.00%    100.00%
system.ruby.Directory_Controller.NO_DR_B_W.Memory_Data::total          132                      
system.ruby.Directory_Controller.NO_DR_B_W.Ack |         264    100.00%    100.00% |           0      0.00%    100.00%
system.ruby.Directory_Controller.NO_DR_B_W.Ack::total          264                      
system.ruby.Directory_Controller.NO_DR_B_D.Ack |         291     65.39%     65.39% |         154     34.61%    100.00%
system.ruby.Directory_Controller.NO_DR_B_D.Ack::total          445                      
system.ruby.Directory_Controller.NO_DR_B_D.Shared_Data |           6     40.00%     40.00% |           9     60.00%    100.00%
system.ruby.Directory_Controller.NO_DR_B_D.Shared_Data::total           15                      
system.ruby.Directory_Controller.NO_DR_B_D.Exclusive_Data |         285     66.28%     66.28% |         145     33.72%    100.00%
system.ruby.Directory_Controller.NO_DR_B_D.Exclusive_Data::total          430                      
system.ruby.Directory_Controller.NO_DR_B_D.All_acks_and_shared_data |           6     40.00%     40.00% |           9     60.00%    100.00%
system.ruby.Directory_Controller.NO_DR_B_D.All_acks_and_shared_data::total           15                      
system.ruby.Directory_Controller.NO_DR_B_D.All_acks_and_data_no_sharers |         285     66.28%     66.28% |         145     33.72%    100.00%
system.ruby.Directory_Controller.NO_DR_B_D.All_acks_and_data_no_sharers::total          430                      
system.ruby.Directory_Controller.NO_DR_B.All_acks_and_data_no_sharers |         132    100.00%    100.00% |           0      0.00%    100.00%
system.ruby.Directory_Controller.NO_DR_B.All_acks_and_data_no_sharers::total          132                      
system.ruby.Directory_Controller.NO_DW_W.Memory_Ack |         155     26.91%     26.91% |         421     73.09%    100.00%
system.ruby.Directory_Controller.NO_DW_W.Memory_Ack::total          576                      
system.ruby.L1Cache_Controller.Load           1237996      0.00%      0.00%
system.ruby.L1Cache_Controller.Ifetch         6646487      0.00%      0.00%
system.ruby.L1Cache_Controller.Store           843082      0.00%      0.00%
system.ruby.L1Cache_Controller.L1_to_L2          6170      0.00%      0.00%
system.ruby.L1Cache_Controller.Trigger_L2_to_L1D          509      0.00%      0.00%
system.ruby.L1Cache_Controller.Trigger_L2_to_L1I         5063      0.00%      0.00%
system.ruby.L1Cache_Controller.Complete_L2_to_L1         5572      0.00%      0.00%
system.ruby.L1Cache_Controller.Other_GETX          584      0.00%      0.00%
system.ruby.L1Cache_Controller.Other_GETS         1011      0.00%      0.00%
system.ruby.L1Cache_Controller.Ack               1432      0.00%      0.00%
system.ruby.L1Cache_Controller.Exclusive_Data         1432      0.00%      0.00%
system.ruby.L1Cache_Controller.All_acks_no_sharers         1432      0.00%      0.00%
system.ruby.L1Cache_Controller.I.Load             147      0.00%      0.00%
system.ruby.L1Cache_Controller.I.Ifetch           457      0.00%      0.00%
system.ruby.L1Cache_Controller.I.Store            784      0.00%      0.00%
system.ruby.L1Cache_Controller.I.L1_to_L2          112      0.00%      0.00%
system.ruby.L1Cache_Controller.I.Trigger_L2_to_L1D           44      0.00%      0.00%
system.ruby.L1Cache_Controller.I.Other_GETX          574      0.00%      0.00%
system.ruby.L1Cache_Controller.I.Other_GETS          720      0.00%      0.00%
system.ruby.L1Cache_Controller.O.Load               6      0.00%      0.00%
system.ruby.L1Cache_Controller.O.Other_GETX            5      0.00%      0.00%
system.ruby.L1Cache_Controller.O.Other_GETS            1      0.00%      0.00%
system.ruby.L1Cache_Controller.M.Load          103153      0.00%      0.00%
system.ruby.L1Cache_Controller.M.Ifetch       6640967      0.00%      0.00%
system.ruby.L1Cache_Controller.M.Store             28      0.00%      0.00%
system.ruby.L1Cache_Controller.M.L1_to_L2         5398      0.00%      0.00%
system.ruby.L1Cache_Controller.M.Trigger_L2_to_L1D           21      0.00%      0.00%
system.ruby.L1Cache_Controller.M.Trigger_L2_to_L1I         5063      0.00%      0.00%
system.ruby.L1Cache_Controller.M.Other_GETX            5      0.00%      0.00%
system.ruby.L1Cache_Controller.M.Other_GETS            5      0.00%      0.00%
system.ruby.L1Cache_Controller.MM.Load        1134206      0.00%      0.00%
system.ruby.L1Cache_Controller.MM.Store        842245      0.00%      0.00%
system.ruby.L1Cache_Controller.MM.L1_to_L2          660      0.00%      0.00%
system.ruby.L1Cache_Controller.MM.Trigger_L2_to_L1D          444      0.00%      0.00%
system.ruby.L1Cache_Controller.MM.Other_GETS          285      0.00%      0.00%
system.ruby.L1Cache_Controller.IR.Load             44      0.00%      0.00%
system.ruby.L1Cache_Controller.MR.Load             20      0.00%      0.00%
system.ruby.L1Cache_Controller.MR.Ifetch         5063      0.00%      0.00%
system.ruby.L1Cache_Controller.MR.Store             1      0.00%      0.00%
system.ruby.L1Cache_Controller.MMR.Load           420      0.00%      0.00%
system.ruby.L1Cache_Controller.MMR.Store           24      0.00%      0.00%
system.ruby.L1Cache_Controller.IM.Ack             784      0.00%      0.00%
system.ruby.L1Cache_Controller.IM.Exclusive_Data          784      0.00%      0.00%
system.ruby.L1Cache_Controller.M_W.All_acks_no_sharers          648      0.00%      0.00%
system.ruby.L1Cache_Controller.MM_W.All_acks_no_sharers          784      0.00%      0.00%
system.ruby.L1Cache_Controller.IS.Ack             648      0.00%      0.00%
system.ruby.L1Cache_Controller.IS.Exclusive_Data          648      0.00%      0.00%
system.ruby.L1Cache_Controller.IT.Complete_L2_to_L1           44      0.00%      0.00%
system.ruby.L1Cache_Controller.MT.Complete_L2_to_L1         5084      0.00%      0.00%
system.ruby.L1Cache_Controller.MMT.Complete_L2_to_L1          444      0.00%      0.00%
system.ruby.GPUL1Cache_Controller.Load   |         428     25.28%     25.28% |         421     24.87%     50.15% |         428     25.28%     75.43% |         416     24.57%    100.00%
system.ruby.GPUL1Cache_Controller.Load::total         1693                      
system.ruby.GPUL1Cache_Controller.Ifetch |          12     24.49%     24.49% |          13     26.53%     51.02% |          12     24.49%     75.51% |          12     24.49%    100.00%
system.ruby.GPUL1Cache_Controller.Ifetch::total           49                      
system.ruby.GPUL1Cache_Controller.Store  |         308     24.48%     24.48% |         322     25.60%     50.08% |         308     24.48%     74.56% |         320     25.44%    100.00%
system.ruby.GPUL1Cache_Controller.Store::total         1258                      
system.ruby.GPUL1Cache_Controller.Data   |         129     24.11%     24.11% |         140     26.17%     50.28% |         129     24.11%     74.39% |         137     25.61%    100.00%
system.ruby.GPUL1Cache_Controller.Data::total          535                      
system.ruby.GPUL1Cache_Controller.Write_Ack |         308     24.48%     24.48% |         322     25.60%     50.08% |         308     24.48%     74.56% |         320     25.44%    100.00%
system.ruby.GPUL1Cache_Controller.Write_Ack::total         1258                      
system.ruby.GPUL1Cache_Controller.I.Load |         117     24.07%     24.07% |         127     26.13%     50.21% |         117     24.07%     74.28% |         125     25.72%    100.00%
system.ruby.GPUL1Cache_Controller.I.Load::total          486                      
system.ruby.GPUL1Cache_Controller.I.Ifetch |          12     24.49%     24.49% |          13     26.53%     51.02% |          12     24.49%     75.51% |          12     24.49%    100.00%
system.ruby.GPUL1Cache_Controller.I.Ifetch::total           49                      
system.ruby.GPUL1Cache_Controller.I.Store |         200     25.00%     25.00% |         200     25.00%     50.00% |         200     25.00%     75.00% |         200     25.00%    100.00%
system.ruby.GPUL1Cache_Controller.I.Store::total          800                      
system.ruby.GPUL1Cache_Controller.V.Load |         311     25.77%     25.77% |         294     24.36%     50.12% |         311     25.77%     75.89% |         291     24.11%    100.00%
system.ruby.GPUL1Cache_Controller.V.Load::total         1207                      
system.ruby.GPUL1Cache_Controller.V.Store |         108     23.58%     23.58% |         122     26.64%     50.22% |         108     23.58%     73.80% |         120     26.20%    100.00%
system.ruby.GPUL1Cache_Controller.V.Store::total          458                      
system.ruby.GPUL1Cache_Controller.IA.Write_Ack |         308     24.48%     24.48% |         322     25.60%     50.08% |         308     24.48%     74.56% |         320     25.44%    100.00%
system.ruby.GPUL1Cache_Controller.IA.Write_Ack::total         1258                      
system.ruby.GPUL1Cache_Controller.IV.Data |         129     24.11%     24.11% |         140     26.17%     50.28% |         129     24.11%     74.39% |         137     25.61%    100.00%
system.ruby.GPUL1Cache_Controller.IV.Data::total          535                      
system.ruby.GPUL2Cache_Controller.Get             634      0.00%      0.00%
system.ruby.GPUL2Cache_Controller.Store          1266      0.00%      0.00%
system.ruby.GPUL2Cache_Controller.Other_GETX         1360      0.00%      0.00%
system.ruby.GPUL2Cache_Controller.Other_GETS         1225      0.00%      0.00%
system.ruby.GPUL2Cache_Controller.Ack             442      0.00%      0.00%
system.ruby.GPUL2Cache_Controller.Exclusive_Data          442      0.00%      0.00%
system.ruby.GPUL2Cache_Controller.All_acks_no_sharers          442      0.00%      0.00%
system.ruby.GPUL2Cache_Controller.I.Get           434      0.00%      0.00%
system.ruby.GPUL2Cache_Controller.I.Store            8      0.00%      0.00%
system.ruby.GPUL2Cache_Controller.I.Other_GETX         1223      0.00%      0.00%
system.ruby.GPUL2Cache_Controller.I.Other_GETS         1071      0.00%      0.00%
system.ruby.GPUL2Cache_Controller.M.Store          411      0.00%      0.00%
system.ruby.GPUL2Cache_Controller.M.Other_GETS            9      0.00%      0.00%
system.ruby.GPUL2Cache_Controller.MM.Get            2      0.00%      0.00%
system.ruby.GPUL2Cache_Controller.MM.Store          831      0.00%      0.00%
system.ruby.GPUL2Cache_Controller.MM.Other_GETX          137      0.00%      0.00%
system.ruby.GPUL2Cache_Controller.MM.Other_GETS          145      0.00%      0.00%
system.ruby.GPUL2Cache_Controller.IM.Store            8      0.00%      0.00%
system.ruby.GPUL2Cache_Controller.IM.Ack            8      0.00%      0.00%
system.ruby.GPUL2Cache_Controller.IM.Exclusive_Data            8      0.00%      0.00%
system.ruby.GPUL2Cache_Controller.IS.Get           99      0.00%      0.00%
system.ruby.GPUL2Cache_Controller.IS.Ack          434      0.00%      0.00%
system.ruby.GPUL2Cache_Controller.IS.Exclusive_Data          434      0.00%      0.00%
system.ruby.GPUL2Cache_Controller.M_W.Get           99      0.00%      0.00%
system.ruby.GPUL2Cache_Controller.M_W.All_acks_no_sharers          434      0.00%      0.00%
system.ruby.GPUL2Cache_Controller.MM_W.Store            8      0.00%      0.00%
system.ruby.GPUL2Cache_Controller.MM_W.All_acks_no_sharers            8      0.00%      0.00%

---------- End Simulation Statistics   ----------
