
---------- Begin Simulation Statistics ----------
sim_seconds                                  0.013270                       # Number of seconds simulated
sim_ticks                                 13270345500                       # Number of ticks simulated
final_tick                                13270345500                       # Number of ticks from beginning of simulation (restored from checkpoints and never reset)
sim_freq                                 1000000000000                       # Frequency of simulated ticks
host_inst_rate                                 167190                       # Simulator instruction rate (inst/s)
host_op_rate                                   319424                       # Simulator op (including micro ops) rate (op/s)
host_tick_rate                              448546662                       # Simulator tick rate (ticks/s)
host_mem_usage                                4518004                       # Number of bytes of host memory used
host_seconds                                    29.59                       # Real time elapsed on the host
sim_insts                                     4946336                       # Number of instructions simulated
sim_ops                                       9450220                       # Number of ops (including micro ops) simulated
system.voltage_domain.voltage                       1                       # Voltage in Volts
system.clk_domain.clock                          1000                       # Clock period in ticks
system.mem_ctrls.clk_domain.clock                2500                       # Clock period in ticks
system.dev_mem_ctrls.bytes_read::ruby.dev_dir_cntrl0        56576                       # Number of bytes read from this memory
system.dev_mem_ctrls.bytes_read::total          56576                       # Number of bytes read from this memory
system.dev_mem_ctrls.bytes_written::ruby.dev_dir_cntrl0        53888                       # Number of bytes written to this memory
system.dev_mem_ctrls.bytes_written::total        53888                       # Number of bytes written to this memory
system.dev_mem_ctrls.num_reads::ruby.dev_dir_cntrl0          442                       # Number of read requests responded to by this memory
system.dev_mem_ctrls.num_reads::total             442                       # Number of read requests responded to by this memory
system.dev_mem_ctrls.num_writes::ruby.dev_dir_cntrl0          421                       # Number of write requests responded to by this memory
system.dev_mem_ctrls.num_writes::total            421                       # Number of write requests responded to by this memory
system.dev_mem_ctrls.bw_read::ruby.dev_dir_cntrl0      4263340                       # Total read bandwidth from this memory (bytes/s)
system.dev_mem_ctrls.bw_read::total           4263340                       # Total read bandwidth from this memory (bytes/s)
system.dev_mem_ctrls.bw_write::ruby.dev_dir_cntrl0      4060783                       # Write bandwidth from this memory (bytes/s)
system.dev_mem_ctrls.bw_write::total          4060783                       # Write bandwidth from this memory (bytes/s)
system.dev_mem_ctrls.bw_total::ruby.dev_dir_cntrl0      8324124                       # Total bandwidth to/from this memory (bytes/s)
system.dev_mem_ctrls.bw_total::total          8324124                       # Total bandwidth to/from this memory (bytes/s)
system.dev_mem_ctrls.memReq                       863                       # Total number of memory requests
system.dev_mem_ctrls.memRead                      442                       # Number of memory reads
system.dev_mem_ctrls.memWrite                     421                       # Number of memory writes
system.dev_mem_ctrls.memRefresh                   267                       # Number of memory refreshes
system.dev_mem_ctrls.memWaitCycles              28297                       # Delay stalled at the head of the bank queue
system.dev_mem_ctrls.memInputQ                  19433                       # Delay in the input queue
system.dev_mem_ctrls.memBankQ                   20199                       # Delay behind the head of the bank queue
system.dev_mem_ctrls.totalStalls                67929                       # Total number of stall cycles
system.dev_mem_ctrls.stallsPerReq           78.712630                       # Expected number of stall cycles per request
system.dev_mem_ctrls.memBankBusy                 5045                       # memory stalls due to busy bank
system.dev_mem_ctrls.memBusBusy                  7966                       # memory stalls due to busy bus
system.dev_mem_ctrls.memDataBusBusy              1829                       # memory stalls due to read read turnaround
system.dev_mem_ctrls.memArbWait                  5846                       # memory stalls due to arbitration
system.dev_mem_ctrls.memNotOld                   7611                       # memory stalls due to anti starvation
system.dev_mem_ctrls.memBankCount        |          26      3.01%      3.01% |          26      3.01%      6.03% |          26      3.01%      9.04% |          26      3.01%     12.05% |          26      3.01%     15.06% |          26      3.01%     18.08% |          25      2.90%     20.97% |          24      2.78%     23.75% |          24      2.78%     26.54% |          26      3.01%     29.55% |          28      3.24%     32.79% |          28      3.24%     36.04% |          28      3.24%     39.28% |          28      3.24%     42.53% |          28      3.24%     45.77% |          32      3.71%     49.48% |          32      3.71%     53.19% |          32      3.71%     56.89% |          32      3.71%     60.60% |          26      3.01%     63.62% |          26      3.01%     66.63% |          26      3.01%     69.64% |          26      3.01%     72.65% |          28      3.24%     75.90% |          28      3.24%     79.14% |          28      3.24%     82.39% |          28      3.24%     85.63% |          28      3.24%     88.88% |          24      2.78%     91.66% |          24      2.78%     94.44% |          24      2.78%     97.22% |          24      2.78%    100.00% # Number of accesses per bank
system.dev_mem_ctrls.memBankCount::total          863                       # Number of accesses per bank
system.mem_ctrls.bytes_read::ruby.dir_cntrl0       199936                       # Number of bytes read from this memory
system.mem_ctrls.bytes_read::total             199936                       # Number of bytes read from this memory
system.mem_ctrls.bytes_written::ruby.dir_cntrl0        19840                       # Number of bytes written to this memory
system.mem_ctrls.bytes_written::total           19840                       # Number of bytes written to this memory
system.mem_ctrls.num_reads::ruby.dir_cntrl0         1562                       # Number of read requests responded to by this memory
system.mem_ctrls.num_reads::total                1562                       # Number of read requests responded to by this memory
system.mem_ctrls.num_writes::ruby.dir_cntrl0          155                       # Number of write requests responded to by this memory
system.mem_ctrls.num_writes::total                155                       # Number of write requests responded to by this memory
system.mem_ctrls.bw_read::ruby.dir_cntrl0     15066375                       # Total read bandwidth from this memory (bytes/s)
system.mem_ctrls.bw_read::total              15066375                       # Total read bandwidth from this memory (bytes/s)
system.mem_ctrls.bw_write::ruby.dir_cntrl0      1495063                       # Write bandwidth from this memory (bytes/s)
system.mem_ctrls.bw_write::total              1495063                       # Write bandwidth from this memory (bytes/s)
system.mem_ctrls.bw_total::ruby.dir_cntrl0     16561438                       # Total bandwidth to/from this memory (bytes/s)
system.mem_ctrls.bw_total::total             16561438                       # Total bandwidth to/from this memory (bytes/s)
system.mem_ctrls.memReq                          1717                       # Total number of memory requests
system.mem_ctrls.memRead                         1562                       # Number of memory reads
system.mem_ctrls.memWrite                         155                       # Number of memory writes
system.mem_ctrls.memRefresh                     11730                       # Number of memory refreshes
system.mem_ctrls.memWaitCycles                  10095                       # Delay stalled at the head of the bank queue
system.mem_ctrls.memInputQ                       2891                       # Delay in the input queue
system.mem_ctrls.memBankQ                        6134                       # Delay behind the head of the bank queue
system.mem_ctrls.totalStalls                    19120                       # Total number of stall cycles
system.mem_ctrls.stallsPerReq               11.135702                       # Expected number of stall cycles per request
system.mem_ctrls.memBankBusy                     1724                       # memory stalls due to busy bank
system.mem_ctrls.memBusBusy                      3036                       # memory stalls due to busy bus
system.mem_ctrls.memDataBusBusy                   205                       # memory stalls due to read read turnaround
system.mem_ctrls.memArbWait                      2607                       # memory stalls due to arbitration
system.mem_ctrls.memNotOld                       2523                       # memory stalls due to anti starvation
system.mem_ctrls.memBankCount            |          51      2.97%      2.97% |          55      3.20%      6.17% |          50      2.91%      9.09% |          54      3.15%     12.23% |          49      2.85%     15.08% |          48      2.80%     17.88% |          45      2.62%     20.50% |          49      2.85%     23.35% |          50      2.91%     26.27% |          49      2.85%     29.12% |          57      3.32%     32.44% |          50      2.91%     35.35% |          47      2.74%     38.09% |          48      2.80%     40.89% |          53      3.09%     43.97% |          52      3.03%     47.00% |          58      3.38%     50.38% |          60      3.49%     53.87% |          55      3.20%     57.08% |          58      3.38%     60.45% |          47      2.74%     63.19% |          48      2.80%     65.99% |          57      3.32%     69.31% |          60      3.49%     72.80% |          66      3.84%     76.65% |          60      3.49%     80.14% |          58      3.38%     83.52% |          57      3.32%     86.84% |          55      3.20%     90.04% |          56      3.26%     93.30% |          60      3.49%     96.80% |          55      3.20%    100.00% # Number of accesses per bank
system.mem_ctrls.memBankCount::total             1717                       # Number of accesses per bank
system.ruby_clk_domain.clock                      500                       # Clock period in ticks
system.ruby.phys_mem.bytes_read::cpu.inst     53170888                       # Number of bytes read from this memory
system.ruby.phys_mem.bytes_read::cpu.data      7953195                       # Number of bytes read from this memory
system.ruby.phys_mem.bytes_read::gpu.ce         73052                       # Number of bytes read from this memory
system.ruby.phys_mem.bytes_read::gpu.shader_cores0.data        35072                       # Number of bytes read from this memory
system.ruby.phys_mem.bytes_read::gpu.shader_cores0.inst          288                       # Number of bytes read from this memory
system.ruby.phys_mem.bytes_read::gpu.shader_cores1.data        35456                       # Number of bytes read from this memory
system.ruby.phys_mem.bytes_read::gpu.shader_cores1.inst          312                       # Number of bytes read from this memory
system.ruby.phys_mem.bytes_read::gpu.shader_cores2.data        35072                       # Number of bytes read from this memory
system.ruby.phys_mem.bytes_read::gpu.shader_cores2.inst          288                       # Number of bytes read from this memory
system.ruby.phys_mem.bytes_read::gpu.shader_cores3.data        34816                       # Number of bytes read from this memory
system.ruby.phys_mem.bytes_read::gpu.shader_cores3.inst          288                       # Number of bytes read from this memory
system.ruby.phys_mem.bytes_read::total       61338727                       # Number of bytes read from this memory
system.ruby.phys_mem.bytes_inst_read::cpu.inst     53170888                       # Number of instructions bytes read from this memory
system.ruby.phys_mem.bytes_inst_read::gpu.shader_cores0.inst          288                       # Number of instructions bytes read from this memory
system.ruby.phys_mem.bytes_inst_read::gpu.shader_cores1.inst          312                       # Number of instructions bytes read from this memory
system.ruby.phys_mem.bytes_inst_read::gpu.shader_cores2.inst          288                       # Number of instructions bytes read from this memory
system.ruby.phys_mem.bytes_inst_read::gpu.shader_cores3.inst          288                       # Number of instructions bytes read from this memory
system.ruby.phys_mem.bytes_inst_read::total     53172064                       # Number of instructions bytes read from this memory
system.ruby.phys_mem.bytes_written::cpu.data      4954819                       # Number of bytes written to this memory
system.ruby.phys_mem.bytes_written::gpu.ce        73052                       # Number of bytes written to this memory
system.ruby.phys_mem.bytes_written::gpu.shader_cores0.data        12544                       # Number of bytes written to this memory
system.ruby.phys_mem.bytes_written::gpu.shader_cores1.data        12672                       # Number of bytes written to this memory
system.ruby.phys_mem.bytes_written::gpu.shader_cores2.data        12544                       # Number of bytes written to this memory
system.ruby.phys_mem.bytes_written::gpu.shader_cores3.data        12544                       # Number of bytes written to this memory
system.ruby.phys_mem.bytes_written::total      5078175                       # Number of bytes written to this memory
system.ruby.phys_mem.num_reads::cpu.inst      6646361                       # Number of read requests responded to by this memory
system.ruby.phys_mem.num_reads::cpu.data      1295096                       # Number of read requests responded to by this memory
system.ruby.phys_mem.num_reads::gpu.ce            577                       # Number of read requests responded to by this memory
system.ruby.phys_mem.num_reads::gpu.shader_cores0.data          428                       # Number of read requests responded to by this memory
system.ruby.phys_mem.num_reads::gpu.shader_cores0.inst           12                       # Number of read requests responded to by this memory
system.ruby.phys_mem.num_reads::gpu.shader_cores1.data          421                       # Number of read requests responded to by this memory
system.ruby.phys_mem.num_reads::gpu.shader_cores1.inst           13                       # Number of read requests responded to by this memory
system.ruby.phys_mem.num_reads::gpu.shader_cores2.data          428                       # Number of read requests responded to by this memory
system.ruby.phys_mem.num_reads::gpu.shader_cores2.inst           12                       # Number of read requests responded to by this memory
system.ruby.phys_mem.num_reads::gpu.shader_cores3.data          416                       # Number of read requests responded to by this memory
system.ruby.phys_mem.num_reads::gpu.shader_cores3.inst           12                       # Number of read requests responded to by this memory
system.ruby.phys_mem.num_reads::total         7943776                       # Number of read requests responded to by this memory
system.ruby.phys_mem.num_writes::cpu.data       785970                       # Number of write requests responded to by this memory
system.ruby.phys_mem.num_writes::gpu.ce           576                       # Number of write requests responded to by this memory
system.ruby.phys_mem.num_writes::gpu.shader_cores0.data          308                       # Number of write requests responded to by this memory
system.ruby.phys_mem.num_writes::gpu.shader_cores1.data          322                       # Number of write requests responded to by this memory
system.ruby.phys_mem.num_writes::gpu.shader_cores2.data          308                       # Number of write requests responded to by this memory
system.ruby.phys_mem.num_writes::gpu.shader_cores3.data          320                       # Number of write requests responded to by this memory
system.ruby.phys_mem.num_writes::total         787804                       # Number of write requests responded to by this memory
system.ruby.phys_mem.bw_read::cpu.inst     4006744813                       # Total read bandwidth from this memory (bytes/s)
system.ruby.phys_mem.bw_read::cpu.data      599320869                       # Total read bandwidth from this memory (bytes/s)
system.ruby.phys_mem.bw_read::gpu.ce          5504906                       # Total read bandwidth from this memory (bytes/s)
system.ruby.phys_mem.bw_read::gpu.shader_cores0.data      2642885                       # Total read bandwidth from this memory (bytes/s)
system.ruby.phys_mem.bw_read::gpu.shader_cores0.inst        21703                       # Total read bandwidth from this memory (bytes/s)
system.ruby.phys_mem.bw_read::gpu.shader_cores1.data      2671822                       # Total read bandwidth from this memory (bytes/s)
system.ruby.phys_mem.bw_read::gpu.shader_cores1.inst        23511                       # Total read bandwidth from this memory (bytes/s)
system.ruby.phys_mem.bw_read::gpu.shader_cores2.data      2642885                       # Total read bandwidth from this memory (bytes/s)
system.ruby.phys_mem.bw_read::gpu.shader_cores2.inst        21703                       # Total read bandwidth from this memory (bytes/s)
system.ruby.phys_mem.bw_read::gpu.shader_cores3.data      2623594                       # Total read bandwidth from this memory (bytes/s)
system.ruby.phys_mem.bw_read::gpu.shader_cores3.inst        21703                       # Total read bandwidth from this memory (bytes/s)
system.ruby.phys_mem.bw_read::total        4622240393                       # Total read bandwidth from this memory (bytes/s)
system.ruby.phys_mem.bw_inst_read::cpu.inst   4006744813                       # Instruction read bandwidth from this memory (bytes/s)
system.ruby.phys_mem.bw_inst_read::gpu.shader_cores0.inst        21703                       # Instruction read bandwidth from this memory (bytes/s)
system.ruby.phys_mem.bw_inst_read::gpu.shader_cores1.inst        23511                       # Instruction read bandwidth from this memory (bytes/s)
system.ruby.phys_mem.bw_inst_read::gpu.shader_cores2.inst        21703                       # Instruction read bandwidth from this memory (bytes/s)
system.ruby.phys_mem.bw_inst_read::gpu.shader_cores3.inst        21703                       # Instruction read bandwidth from this memory (bytes/s)
system.ruby.phys_mem.bw_inst_read::total   4006833432                       # Instruction read bandwidth from this memory (bytes/s)
system.ruby.phys_mem.bw_write::cpu.data     373375283                       # Write bandwidth from this memory (bytes/s)
system.ruby.phys_mem.bw_write::gpu.ce         5504906                       # Write bandwidth from this memory (bytes/s)
system.ruby.phys_mem.bw_write::gpu.shader_cores0.data       945266                       # Write bandwidth from this memory (bytes/s)
system.ruby.phys_mem.bw_write::gpu.shader_cores1.data       954911                       # Write bandwidth from this memory (bytes/s)
system.ruby.phys_mem.bw_write::gpu.shader_cores2.data       945266                       # Write bandwidth from this memory (bytes/s)
system.ruby.phys_mem.bw_write::gpu.shader_cores3.data       945266                       # Write bandwidth from this memory (bytes/s)
system.ruby.phys_mem.bw_write::total        382670896                       # Write bandwidth from this memory (bytes/s)
system.ruby.phys_mem.bw_total::cpu.inst    4006744813                       # Total bandwidth to/from this memory (bytes/s)
system.ruby.phys_mem.bw_total::cpu.data     972696152                       # Total bandwidth to/from this memory (bytes/s)
system.ruby.phys_mem.bw_total::gpu.ce        11009811                       # Total bandwidth to/from this memory (bytes/s)
system.ruby.phys_mem.bw_total::gpu.shader_cores0.data      3588151                       # Total bandwidth to/from this memory (bytes/s)
system.ruby.phys_mem.bw_total::gpu.shader_cores0.inst        21703                       # Total bandwidth to/from this memory (bytes/s)
system.ruby.phys_mem.bw_total::gpu.shader_cores1.data      3626733                       # Total bandwidth to/from this memory (bytes/s)
system.ruby.phys_mem.bw_total::gpu.shader_cores1.inst        23511                       # Total bandwidth to/from this memory (bytes/s)
system.ruby.phys_mem.bw_total::gpu.shader_cores2.data      3588151                       # Total bandwidth to/from this memory (bytes/s)
system.ruby.phys_mem.bw_total::gpu.shader_cores2.inst        21703                       # Total bandwidth to/from this memory (bytes/s)
system.ruby.phys_mem.bw_total::gpu.shader_cores3.data      3568860                       # Total bandwidth to/from this memory (bytes/s)
system.ruby.phys_mem.bw_total::gpu.shader_cores3.inst        21703                       # Total bandwidth to/from this memory (bytes/s)
system.ruby.phys_mem.bw_total::total       5004911289                       # Total bandwidth to/from this memory (bytes/s)
system.cpu_voltage_domain.voltage                   1                       # Voltage in Volts
system.cpu_clk_domain.clock                       500                       # Clock period in ticks
system.cpu.apic_clk_domain.clock                 8000                       # Clock period in ticks
system.cpu.workload.num_syscalls                   44                       # Number of system calls
system.cpu.numCycles                         26540691                       # number of cpu cycles simulated
system.cpu.numWorkItemsStarted                      1                       # number of work items this cpu started
system.cpu.numWorkItemsCompleted                    1                       # number of work items this cpu completed
system.cpu.committedInsts                     4946336                       # Number of instructions committed
system.cpu.committedOps                       9450220                       # Number of ops (including micro ops) committed
system.cpu.num_int_alu_accesses               9302907                       # Number of integer alu accesses
system.cpu.num_fp_alu_accesses                 212597                       # Number of float alu accesses
system.cpu.num_func_calls                      196214                       # number of times a function call or return occured
system.cpu.num_conditional_control_insts       810111                       # number of instructions that are conditional controls
system.cpu.num_int_insts                      9302907                       # number of integer instructions
system.cpu.num_fp_insts                        212597                       # number of float instructions
system.cpu.num_int_register_reads            17826202                       # number of times the integer registers were read
system.cpu.num_int_register_writes            7437894                       # number of times the integer registers were written
system.cpu.num_fp_register_reads               283084                       # number of times the floating registers were read
system.cpu.num_fp_register_writes              145382                       # number of times the floating registers were written
system.cpu.num_cc_register_reads              5490726                       # number of times the CC registers were read
system.cpu.num_cc_register_writes             3235465                       # number of times the CC registers were written
system.cpu.num_mem_refs                       2081066                       # number of memory refs
system.cpu.num_load_insts                     1295096                       # Number of load instructions
system.cpu.num_store_insts                     785970                       # Number of store instructions
system.cpu.num_idle_cycles               62783.209995                       # Number of idle cycles
system.cpu.num_busy_cycles               26477907.790005                       # Number of busy cycles
system.cpu.not_idle_fraction                 0.997634                       # Percentage of non-idle cycles
system.cpu.idle_fraction                     0.002366                       # Percentage of idle cycles
system.cpu.Branches                           1085816                       # Number of branches fetched
system.cpu.op_class::No_OpClass                 34923      0.37%      0.37% # Class of executed instruction
system.cpu.op_class::IntAlu                   7181936     76.00%     76.37% # Class of executed instruction
system.cpu.op_class::IntMult                    20875      0.22%     76.59% # Class of executed instruction
system.cpu.op_class::IntDiv                       370      0.00%     76.59% # Class of executed instruction
system.cpu.op_class::FloatAdd                  131050      1.39%     77.98% # Class of executed instruction
system.cpu.op_class::FloatCmp                       0      0.00%     77.98% # Class of executed instruction
system.cpu.op_class::FloatCvt                       0      0.00%     77.98% # Class of executed instruction
system.cpu.op_class::FloatMult                      0      0.00%     77.98% # Class of executed instruction
system.cpu.op_class::FloatDiv                       0      0.00%     77.98% # Class of executed instruction
system.cpu.op_class::FloatSqrt                      0      0.00%     77.98% # Class of executed instruction
system.cpu.op_class::SimdAdd                        0      0.00%     77.98% # Class of executed instruction
system.cpu.op_class::SimdAddAcc                     0      0.00%     77.98% # Class of executed instruction
system.cpu.op_class::SimdAlu                        0      0.00%     77.98% # Class of executed instruction
system.cpu.op_class::SimdCmp                        0      0.00%     77.98% # Class of executed instruction
system.cpu.op_class::SimdCvt                        0      0.00%     77.98% # Class of executed instruction
system.cpu.op_class::SimdMisc                       0      0.00%     77.98% # Class of executed instruction
system.cpu.op_class::SimdMult                       0      0.00%     77.98% # Class of executed instruction
system.cpu.op_class::SimdMultAcc                    0      0.00%     77.98% # Class of executed instruction
system.cpu.op_class::SimdShift                      0      0.00%     77.98% # Class of executed instruction
system.cpu.op_class::SimdShiftAcc                   0      0.00%     77.98% # Class of executed instruction
system.cpu.op_class::SimdSqrt                       0      0.00%     77.98% # Class of executed instruction
system.cpu.op_class::SimdFloatAdd                   0      0.00%     77.98% # Class of executed instruction
system.cpu.op_class::SimdFloatAlu                   0      0.00%     77.98% # Class of executed instruction
system.cpu.op_class::SimdFloatCmp                   0      0.00%     77.98% # Class of executed instruction
system.cpu.op_class::SimdFloatCvt                   0      0.00%     77.98% # Class of executed instruction
system.cpu.op_class::SimdFloatDiv                   0      0.00%     77.98% # Class of executed instruction
system.cpu.op_class::SimdFloatMisc                  0      0.00%     77.98% # Class of executed instruction
system.cpu.op_class::SimdFloatMult                  0      0.00%     77.98% # Class of executed instruction
system.cpu.op_class::SimdFloatMultAcc               0      0.00%     77.98% # Class of executed instruction
system.cpu.op_class::SimdFloatSqrt                  0      0.00%     77.98% # Class of executed instruction
system.cpu.op_class::MemRead                  1295096     13.70%     91.68% # Class of executed instruction
system.cpu.op_class::MemWrite                  785970      8.32%    100.00% # Class of executed instruction
system.cpu.op_class::IprAccess                      0      0.00%    100.00% # Class of executed instruction
system.cpu.op_class::InstPrefetch                   0      0.00%    100.00% # Class of executed instruction
system.cpu.op_class::total                    9450220                       # Class of executed instruction
system.gpu.clk_domain.voltage_domain.voltage            1                       # Voltage in Volts
system.gpu.clk_domain.clock                      1429                       # Clock period in ticks
system.gpu.dram_wrapper.clk_domain.clock          541                       # Clock period in ticks
system.gpu.icnt_wrapper.clk_domain.clock         2858                       # Clock period in ticks
system.ruby.delayHist::bucket_size                  4                       # delay histogram for all message
system.ruby.delayHist::max_bucket                  39                       # delay histogram for all message
system.ruby.delayHist::samples                   1793                       # delay histogram for all message
system.ruby.delayHist::mean                  0.646960                       # delay histogram for all message
system.ruby.delayHist::stdev                 2.997909                       # delay histogram for all message
system.ruby.delayHist                    |        1684     93.92%     93.92% |          64      3.57%     97.49% |           4      0.22%     97.71% |          19      1.06%     98.77% |           3      0.17%     98.94% |          16      0.89%     99.83% |           1      0.06%     99.89% |           2      0.11%    100.00% |           0      0.00%    100.00% |           0      0.00%    100.00% # delay histogram for all message
system.ruby.delayHist::total                     1793                       # delay histogram for all message
system.ruby.outstanding_req_hist::bucket_size            8                      
system.ruby.outstanding_req_hist::max_bucket           79                      
system.ruby.outstanding_req_hist::samples      8731580                      
system.ruby.outstanding_req_hist::mean       1.011851                      
system.ruby.outstanding_req_hist::gmean      1.001368                      
system.ruby.outstanding_req_hist::stdev      0.662658                      
system.ruby.outstanding_req_hist         |     8728163     99.96%     99.96% |         608      0.01%     99.97% |         542      0.01%     99.97% |         750      0.01%     99.98% |         808      0.01%     99.99% |         223      0.00%     99.99% |         102      0.00%    100.00% |         153      0.00%    100.00% |         231      0.00%    100.00% |           0      0.00%    100.00%
system.ruby.outstanding_req_hist::total       8731580                      
system.ruby.latency_hist::bucket_size             256                      
system.ruby.latency_hist::max_bucket             2559                      
system.ruby.latency_hist::samples             8731580                      
system.ruby.latency_hist::mean               2.199442                      
system.ruby.latency_hist::gmean              2.007576                      
system.ruby.latency_hist::stdev             11.210681                      
system.ruby.latency_hist                 |     8729566     99.98%     99.98% |         868      0.01%     99.99% |         727      0.01%    100.00% |         151      0.00%    100.00% |         114      0.00%    100.00% |          90      0.00%    100.00% |          57      0.00%    100.00% |           7      0.00%    100.00% |           0      0.00%    100.00% |           0      0.00%    100.00%
system.ruby.latency_hist::total               8731580                      
system.ruby.hit_latency_hist::bucket_size          128                      
system.ruby.hit_latency_hist::max_bucket         1279                      
system.ruby.hit_latency_hist::samples         8729615                      
system.ruby.hit_latency_hist::mean           2.113924                      
system.ruby.hit_latency_hist::gmean          2.005411                      
system.ruby.hit_latency_hist::stdev          7.078733                      
system.ruby.hit_latency_hist             |     8727325     99.97%     99.97% |         808      0.01%     99.98% |         464      0.01%     99.99% |         337      0.00%     99.99% |         432      0.00%    100.00% |         184      0.00%    100.00% |          13      0.00%    100.00% |          39      0.00%    100.00% |          13      0.00%    100.00% |           0      0.00%    100.00%
system.ruby.hit_latency_hist::total           8729615                      
system.ruby.miss_latency_hist::bucket_size          256                      
system.ruby.miss_latency_hist::max_bucket         2559                      
system.ruby.miss_latency_hist::samples           1965                      
system.ruby.miss_latency_hist::mean        382.119084                      
system.ruby.miss_latency_hist::gmean       242.456764                      
system.ruby.miss_latency_hist::stdev       437.697874                      
system.ruby.miss_latency_hist            |        1433     72.93%     72.93% |          67      3.41%     76.34% |         111      5.65%     81.98% |          99      5.04%     87.02% |         101      5.14%     92.16% |          90      4.58%     96.74% |          57      2.90%     99.64% |           7      0.36%    100.00% |           0      0.00%    100.00% |           0      0.00%    100.00%
system.ruby.miss_latency_hist::total             1965                      
system.ruby.GPUL2Cache.incomplete_times           101                      
system.ruby.Directory.incomplete_times            434                      
system.gpu.shader_mmu.numPagefaults                 0                       # Number of Pagefaults
system.gpu.shader_mmu.numPagewalks                168                       # Number of Pagewalks
system.gpu.shader_mmu.totalRequests               168                       # Total number of requests
system.gpu.shader_mmu.retryFailures                 0                       # Times the retry walk after a pagefault failed
system.gpu.shader_mmu.l2hits                        0                       # Hits in the shared L2
system.gpu.shader_mmu.prefetchHits                  0                       # Number of prefetch hits
system.gpu.shader_mmu.numPrefetches                 0                       # Number of prefetchs
system.gpu.shader_mmu.prefetchFaults                0                       # Number of faults caused by prefetches
system.gpu.shader_mmu.pagefaultLatency::samples            0                       # Latency to complete the pagefault
system.gpu.shader_mmu.pagefaultLatency::mean          nan                       # Latency to complete the pagefault
system.gpu.shader_mmu.pagefaultLatency::gmean          nan                       # Latency to complete the pagefault
system.gpu.shader_mmu.pagefaultLatency::stdev          nan                       # Latency to complete the pagefault
system.gpu.shader_mmu.pagefaultLatency::0            0                       # Latency to complete the pagefault
system.gpu.shader_mmu.pagefaultLatency::1            0                       # Latency to complete the pagefault
system.gpu.shader_mmu.pagefaultLatency::2            0                       # Latency to complete the pagefault
system.gpu.shader_mmu.pagefaultLatency::3            0                       # Latency to complete the pagefault
system.gpu.shader_mmu.pagefaultLatency::4            0                       # Latency to complete the pagefault
system.gpu.shader_mmu.pagefaultLatency::5            0                       # Latency to complete the pagefault
system.gpu.shader_mmu.pagefaultLatency::6            0                       # Latency to complete the pagefault
system.gpu.shader_mmu.pagefaultLatency::7            0                       # Latency to complete the pagefault
system.gpu.shader_mmu.pagefaultLatency::8            0                       # Latency to complete the pagefault
system.gpu.shader_mmu.pagefaultLatency::9            0                       # Latency to complete the pagefault
system.gpu.shader_mmu.pagefaultLatency::10            0                       # Latency to complete the pagefault
system.gpu.shader_mmu.pagefaultLatency::11            0                       # Latency to complete the pagefault
system.gpu.shader_mmu.pagefaultLatency::12            0                       # Latency to complete the pagefault
system.gpu.shader_mmu.pagefaultLatency::13            0                       # Latency to complete the pagefault
system.gpu.shader_mmu.pagefaultLatency::14            0                       # Latency to complete the pagefault
system.gpu.shader_mmu.pagefaultLatency::15            0                       # Latency to complete the pagefault
system.gpu.shader_mmu.pagefaultLatency::16            0                       # Latency to complete the pagefault
system.gpu.shader_mmu.pagefaultLatency::17            0                       # Latency to complete the pagefault
system.gpu.shader_mmu.pagefaultLatency::18            0                       # Latency to complete the pagefault
system.gpu.shader_mmu.pagefaultLatency::19            0                       # Latency to complete the pagefault
system.gpu.shader_mmu.pagefaultLatency::20            0                       # Latency to complete the pagefault
system.gpu.shader_mmu.pagefaultLatency::21            0                       # Latency to complete the pagefault
system.gpu.shader_mmu.pagefaultLatency::22            0                       # Latency to complete the pagefault
system.gpu.shader_mmu.pagefaultLatency::23            0                       # Latency to complete the pagefault
system.gpu.shader_mmu.pagefaultLatency::24            0                       # Latency to complete the pagefault
system.gpu.shader_mmu.pagefaultLatency::25            0                       # Latency to complete the pagefault
system.gpu.shader_mmu.pagefaultLatency::26            0                       # Latency to complete the pagefault
system.gpu.shader_mmu.pagefaultLatency::27            0                       # Latency to complete the pagefault
system.gpu.shader_mmu.pagefaultLatency::28            0                       # Latency to complete the pagefault
system.gpu.shader_mmu.pagefaultLatency::29            0                       # Latency to complete the pagefault
system.gpu.shader_mmu.pagefaultLatency::30            0                       # Latency to complete the pagefault
system.gpu.shader_mmu.pagefaultLatency::31            0                       # Latency to complete the pagefault
system.gpu.shader_mmu.pagefaultLatency::total            0                       # Latency to complete the pagefault
system.gpu.shader_mmu.concurrentWalks::samples          168                       # Number of outstanding walks
system.gpu.shader_mmu.concurrentWalks::mean            0                       # Number of outstanding walks
system.gpu.shader_mmu.concurrentWalks::gmean            0                       # Number of outstanding walks
system.gpu.shader_mmu.concurrentWalks::stdev            0                       # Number of outstanding walks
system.gpu.shader_mmu.concurrentWalks::0          168    100.00%    100.00% # Number of outstanding walks
system.gpu.shader_mmu.concurrentWalks::1            0      0.00%    100.00% # Number of outstanding walks
system.gpu.shader_mmu.concurrentWalks::2            0      0.00%    100.00% # Number of outstanding walks
system.gpu.shader_mmu.concurrentWalks::3            0      0.00%    100.00% # Number of outstanding walks
system.gpu.shader_mmu.concurrentWalks::4            0      0.00%    100.00% # Number of outstanding walks
system.gpu.shader_mmu.concurrentWalks::5            0      0.00%    100.00% # Number of outstanding walks
system.gpu.shader_mmu.concurrentWalks::6            0      0.00%    100.00% # Number of outstanding walks
system.gpu.shader_mmu.concurrentWalks::7            0      0.00%    100.00% # Number of outstanding walks
system.gpu.shader_mmu.concurrentWalks::8            0      0.00%    100.00% # Number of outstanding walks
system.gpu.shader_mmu.concurrentWalks::9            0      0.00%    100.00% # Number of outstanding walks
system.gpu.shader_mmu.concurrentWalks::10            0      0.00%    100.00% # Number of outstanding walks
system.gpu.shader_mmu.concurrentWalks::11            0      0.00%    100.00% # Number of outstanding walks
system.gpu.shader_mmu.concurrentWalks::12            0      0.00%    100.00% # Number of outstanding walks
system.gpu.shader_mmu.concurrentWalks::13            0      0.00%    100.00% # Number of outstanding walks
system.gpu.shader_mmu.concurrentWalks::14            0      0.00%    100.00% # Number of outstanding walks
system.gpu.shader_mmu.concurrentWalks::15            0      0.00%    100.00% # Number of outstanding walks
system.gpu.shader_mmu.concurrentWalks::total          168                       # Number of outstanding walks
system.gpu.shader_mmu.pagewalkLatency::samples          168                       # Latency to complete the pagewalk
system.gpu.shader_mmu.pagewalkLatency::mean            0                       # Latency to complete the pagewalk
system.gpu.shader_mmu.pagewalkLatency::gmean            0                       # Latency to complete the pagewalk
system.gpu.shader_mmu.pagewalkLatency::stdev            0                       # Latency to complete the pagewalk
system.gpu.shader_mmu.pagewalkLatency::0          168    100.00%    100.00% # Latency to complete the pagewalk
system.gpu.shader_mmu.pagewalkLatency::1            0      0.00%    100.00% # Latency to complete the pagewalk
system.gpu.shader_mmu.pagewalkLatency::2            0      0.00%    100.00% # Latency to complete the pagewalk
system.gpu.shader_mmu.pagewalkLatency::3            0      0.00%    100.00% # Latency to complete the pagewalk
system.gpu.shader_mmu.pagewalkLatency::4            0      0.00%    100.00% # Latency to complete the pagewalk
system.gpu.shader_mmu.pagewalkLatency::5            0      0.00%    100.00% # Latency to complete the pagewalk
system.gpu.shader_mmu.pagewalkLatency::6            0      0.00%    100.00% # Latency to complete the pagewalk
system.gpu.shader_mmu.pagewalkLatency::7            0      0.00%    100.00% # Latency to complete the pagewalk
system.gpu.shader_mmu.pagewalkLatency::8            0      0.00%    100.00% # Latency to complete the pagewalk
system.gpu.shader_mmu.pagewalkLatency::9            0      0.00%    100.00% # Latency to complete the pagewalk
system.gpu.shader_mmu.pagewalkLatency::10            0      0.00%    100.00% # Latency to complete the pagewalk
system.gpu.shader_mmu.pagewalkLatency::11            0      0.00%    100.00% # Latency to complete the pagewalk
system.gpu.shader_mmu.pagewalkLatency::12            0      0.00%    100.00% # Latency to complete the pagewalk
system.gpu.shader_mmu.pagewalkLatency::13            0      0.00%    100.00% # Latency to complete the pagewalk
system.gpu.shader_mmu.pagewalkLatency::14            0      0.00%    100.00% # Latency to complete the pagewalk
system.gpu.shader_mmu.pagewalkLatency::15            0      0.00%    100.00% # Latency to complete the pagewalk
system.gpu.shader_mmu.pagewalkLatency::16            0      0.00%    100.00% # Latency to complete the pagewalk
system.gpu.shader_mmu.pagewalkLatency::17            0      0.00%    100.00% # Latency to complete the pagewalk
system.gpu.shader_mmu.pagewalkLatency::18            0      0.00%    100.00% # Latency to complete the pagewalk
system.gpu.shader_mmu.pagewalkLatency::19            0      0.00%    100.00% # Latency to complete the pagewalk
system.gpu.shader_mmu.pagewalkLatency::20            0      0.00%    100.00% # Latency to complete the pagewalk
system.gpu.shader_mmu.pagewalkLatency::21            0      0.00%    100.00% # Latency to complete the pagewalk
system.gpu.shader_mmu.pagewalkLatency::22            0      0.00%    100.00% # Latency to complete the pagewalk
system.gpu.shader_mmu.pagewalkLatency::23            0      0.00%    100.00% # Latency to complete the pagewalk
system.gpu.shader_mmu.pagewalkLatency::24            0      0.00%    100.00% # Latency to complete the pagewalk
system.gpu.shader_mmu.pagewalkLatency::25            0      0.00%    100.00% # Latency to complete the pagewalk
system.gpu.shader_mmu.pagewalkLatency::26            0      0.00%    100.00% # Latency to complete the pagewalk
system.gpu.shader_mmu.pagewalkLatency::27            0      0.00%    100.00% # Latency to complete the pagewalk
system.gpu.shader_mmu.pagewalkLatency::28            0      0.00%    100.00% # Latency to complete the pagewalk
system.gpu.shader_mmu.pagewalkLatency::29            0      0.00%    100.00% # Latency to complete the pagewalk
system.gpu.shader_mmu.pagewalkLatency::30            0      0.00%    100.00% # Latency to complete the pagewalk
system.gpu.shader_mmu.pagewalkLatency::31            0      0.00%    100.00% # Latency to complete the pagewalk
system.gpu.shader_mmu.pagewalkLatency::total          168                       # Latency to complete the pagewalk
system.gpu.kernels_started                          2                       # Number of kernels started
system.gpu.kernels_completed                        2                       # Number of kernels completed
system.gpu.ce.device_dtb.hits                       0                       # Number of hits in this TLB
system.gpu.ce.device_dtb.misses                     0                       # Number of misses in this TLB
system.gpu.ce.device_dtb.hitRate                  nan                       # Hit rate for this TLB
system.gpu.ce.host_dtb.hits                       410                       # Number of hits in this TLB
system.gpu.ce.host_dtb.misses                     168                       # Number of misses in this TLB
system.gpu.ce.host_dtb.hitRate               0.709343                       # Hit rate for this TLB
system.gpu.shader_cores0.itb.hits                   0                       # Number of hits in this TLB
system.gpu.shader_cores0.itb.misses                 0                       # Number of misses in this TLB
system.gpu.shader_cores0.itb.hitRate              nan                       # Hit rate for this TLB
system.gpu.shader_cores0.local_loads                0                       # Number of loads from local space
system.gpu.shader_cores0.local_stores               0                       # Number of stores to local space
system.gpu.shader_cores0.shared_loads            5056                       # Number of loads from shared space
system.gpu.shader_cores0.shared_stores           3072                       # Number of stores to shared space
system.gpu.shader_cores0.param_kernel_loads         7296                       # Number of loads from kernel parameter space
system.gpu.shader_cores0.param_local_loads            0                       # Number of loads from local parameter space
system.gpu.shader_cores0.param_local_stores            0                       # Number of stores to local parameter space
system.gpu.shader_cores0.const_loads                0                       # Number of loads from constant space
system.gpu.shader_cores0.tex_loads                  0                       # Number of loads from texture space
system.gpu.shader_cores0.global_loads            8256                       # Number of loads from global space
system.gpu.shader_cores0.global_stores           3136                       # Number of stores to global space
system.gpu.shader_cores0.surf_loads                 0                       # Number of loads from surface space
system.gpu.shader_cores0.generic_loads              0                       # Number of loads from generic spaces (global, shared, local)
system.gpu.shader_cores0.generic_stores             0                       # Number of stores to generic spaces (global, shared, local)
system.gpu.shader_cores0.inst_cache_requests           12                       # Number of instruction cache requests sent
system.gpu.shader_cores0.inst_cache_retries            0                       # Number of instruction cache retries
system.gpu.shader_cores0.inst_counts::0             0                       # Inst counts: 1: ALU, 2: MAD, 3: CTRL, 4: SFU, 5: MEM, 6: TEX, 7: NOP
system.gpu.shader_cores0.inst_counts::1        130176                       # Inst counts: 1: ALU, 2: MAD, 3: CTRL, 4: SFU, 5: MEM, 6: TEX, 7: NOP
system.gpu.shader_cores0.inst_counts::2          2048                       # Inst counts: 1: ALU, 2: MAD, 3: CTRL, 4: SFU, 5: MEM, 6: TEX, 7: NOP
system.gpu.shader_cores0.inst_counts::3         20416                       # Inst counts: 1: ALU, 2: MAD, 3: CTRL, 4: SFU, 5: MEM, 6: TEX, 7: NOP
system.gpu.shader_cores0.inst_counts::4          6144                       # Inst counts: 1: ALU, 2: MAD, 3: CTRL, 4: SFU, 5: MEM, 6: TEX, 7: NOP
system.gpu.shader_cores0.inst_counts::5         26816                       # Inst counts: 1: ALU, 2: MAD, 3: CTRL, 4: SFU, 5: MEM, 6: TEX, 7: NOP
system.gpu.shader_cores0.inst_counts::6             0                       # Inst counts: 1: ALU, 2: MAD, 3: CTRL, 4: SFU, 5: MEM, 6: TEX, 7: NOP
system.gpu.shader_cores0.inst_counts::7             0                       # Inst counts: 1: ALU, 2: MAD, 3: CTRL, 4: SFU, 5: MEM, 6: TEX, 7: NOP
system.gpu.shader_cores0.activeCycles            8479                       # Number of cycles this shader was executing a CTA
system.gpu.shader_cores0.notStalledCycles         4715                       # Number of cycles this shader was actually executing at least one instance
system.gpu.shader_cores0.instInstances         185600                       # Total instructions executed by all PEs in the core
system.gpu.shader_cores0.instPerCycle       21.889374                       # Instruction instances per cycle
system.gpu.shader_cores0.kernels_completed            2                       # Number of kernels completed
system.gpu.shader_cores0.lsq.data_tlb.hits            0                       # Number of hits in this TLB
system.gpu.shader_cores0.lsq.data_tlb.misses            0                       # Number of misses in this TLB
system.gpu.shader_cores0.lsq.data_tlb.hitRate          nan                       # Hit rate for this TLB
system.gpu.shader_cores0.lsq.warpInstBufActive::samples     11244801                       # Histogram of number of active warp inst buffers at a given time
system.gpu.shader_cores0.lsq.warpInstBufActive::mean    16.542254                       # Histogram of number of active warp inst buffers at a given time
system.gpu.shader_cores0.lsq.warpInstBufActive::gmean          nan                       # Histogram of number of active warp inst buffers at a given time
system.gpu.shader_cores0.lsq.warpInstBufActive::stdev    16.176178                       # Histogram of number of active warp inst buffers at a given time
system.gpu.shader_cores0.lsq.warpInstBufActive::0      2909444     25.87%     25.87% # Histogram of number of active warp inst buffers at a given time
system.gpu.shader_cores0.lsq.warpInstBufActive::1       791666      7.04%     32.91% # Histogram of number of active warp inst buffers at a given time
system.gpu.shader_cores0.lsq.warpInstBufActive::2       358679      3.19%     36.10% # Histogram of number of active warp inst buffers at a given time
system.gpu.shader_cores0.lsq.warpInstBufActive::3       194344      1.73%     37.83% # Histogram of number of active warp inst buffers at a given time
system.gpu.shader_cores0.lsq.warpInstBufActive::4       161477      1.44%     39.27% # Histogram of number of active warp inst buffers at a given time
system.gpu.shader_cores0.lsq.warpInstBufActive::5        95743      0.85%     40.12% # Histogram of number of active warp inst buffers at a given time
system.gpu.shader_cores0.lsq.warpInstBufActive::6       165764      1.47%     41.59% # Histogram of number of active warp inst buffers at a given time
system.gpu.shader_cores0.lsq.warpInstBufActive::7       108604      0.97%     42.56% # Histogram of number of active warp inst buffers at a given time
system.gpu.shader_cores0.lsq.warpInstBufActive::8        38583      0.34%     42.90% # Histogram of number of active warp inst buffers at a given time
system.gpu.shader_cores0.lsq.warpInstBufActive::9        84311      0.75%     43.65% # Histogram of number of active warp inst buffers at a given time
system.gpu.shader_cores0.lsq.warpInstBufActive::10        64305      0.57%     44.22% # Histogram of number of active warp inst buffers at a given time
system.gpu.shader_cores0.lsq.warpInstBufActive::11       124323      1.11%     45.33% # Histogram of number of active warp inst buffers at a given time
system.gpu.shader_cores0.lsq.warpInstBufActive::12       127181      1.13%     46.46% # Histogram of number of active warp inst buffers at a given time
system.gpu.shader_cores0.lsq.warpInstBufActive::13       112891      1.00%     47.46% # Histogram of number of active warp inst buffers at a given time
system.gpu.shader_cores0.lsq.warpInstBufActive::14       171480      1.52%     48.99% # Histogram of number of active warp inst buffers at a given time
system.gpu.shader_cores0.lsq.warpInstBufActive::15       202918      1.80%     50.79% # Histogram of number of active warp inst buffers at a given time
system.gpu.shader_cores0.lsq.warpInstBufActive::16       310093      2.76%     53.55% # Histogram of number of active warp inst buffers at a given time
system.gpu.shader_cores0.lsq.warpInstBufActive::17       168622      1.50%     55.05% # Histogram of number of active warp inst buffers at a given time
system.gpu.shader_cores0.lsq.warpInstBufActive::18       225782      2.01%     57.06% # Histogram of number of active warp inst buffers at a given time
system.gpu.shader_cores0.lsq.warpInstBufActive::19       171480      1.52%     58.58% # Histogram of number of active warp inst buffers at a given time
system.gpu.shader_cores0.lsq.warpInstBufActive::20       218637      1.94%     60.53% # Histogram of number of active warp inst buffers at a given time
system.gpu.shader_cores0.lsq.warpInstBufActive::21        97172      0.86%     61.39% # Histogram of number of active warp inst buffers at a given time
system.gpu.shader_cores0.lsq.warpInstBufActive::22        88598      0.79%     62.18% # Histogram of number of active warp inst buffers at a given time
system.gpu.shader_cores0.lsq.warpInstBufActive::23       148616      1.32%     63.50% # Histogram of number of active warp inst buffers at a given time
system.gpu.shader_cores0.lsq.warpInstBufActive::24       105746      0.94%     64.44% # Histogram of number of active warp inst buffers at a given time
system.gpu.shader_cores0.lsq.warpInstBufActive::25       187199      1.66%     66.11% # Histogram of number of active warp inst buffers at a given time
system.gpu.shader_cores0.lsq.warpInstBufActive::26       191486      1.70%     67.81% # Histogram of number of active warp inst buffers at a given time
system.gpu.shader_cores0.lsq.warpInstBufActive::27       167193      1.49%     69.30% # Histogram of number of active warp inst buffers at a given time
system.gpu.shader_cores0.lsq.warpInstBufActive::28       112891      1.00%     70.30% # Histogram of number of active warp inst buffers at a given time
system.gpu.shader_cores0.lsq.warpInstBufActive::29       215779      1.92%     72.22% # Histogram of number of active warp inst buffers at a given time
system.gpu.shader_cores0.lsq.warpInstBufActive::30       298661      2.66%     74.88% # Histogram of number of active warp inst buffers at a given time
system.gpu.shader_cores0.lsq.warpInstBufActive::31       412981      3.67%     78.55% # Histogram of number of active warp inst buffers at a given time
system.gpu.shader_cores0.lsq.warpInstBufActive::32      1128910     10.04%     88.59% # Histogram of number of active warp inst buffers at a given time
system.gpu.shader_cores0.lsq.warpInstBufActive::33       117178      1.04%     89.63% # Histogram of number of active warp inst buffers at a given time
system.gpu.shader_cores0.lsq.warpInstBufActive::34        80024      0.71%     90.34% # Histogram of number of active warp inst buffers at a given time
system.gpu.shader_cores0.lsq.warpInstBufActive::35        17148      0.15%     90.49% # Histogram of number of active warp inst buffers at a given time
system.gpu.shader_cores0.lsq.warpInstBufActive::36        12861      0.11%     90.61% # Histogram of number of active warp inst buffers at a given time
system.gpu.shader_cores0.lsq.warpInstBufActive::37        85740      0.76%     91.37% # Histogram of number of active warp inst buffers at a given time
system.gpu.shader_cores0.lsq.warpInstBufActive::38        57160      0.51%     91.88% # Histogram of number of active warp inst buffers at a given time
system.gpu.shader_cores0.lsq.warpInstBufActive::39        88598      0.79%     92.67% # Histogram of number of active warp inst buffers at a given time
system.gpu.shader_cores0.lsq.warpInstBufActive::40       172909      1.54%     94.21% # Histogram of number of active warp inst buffers at a given time
system.gpu.shader_cores0.lsq.warpInstBufActive::41        35725      0.32%     94.52% # Histogram of number of active warp inst buffers at a given time
system.gpu.shader_cores0.lsq.warpInstBufActive::42        44299      0.39%     94.92% # Histogram of number of active warp inst buffers at a given time
system.gpu.shader_cores0.lsq.warpInstBufActive::43        30009      0.27%     95.18% # Histogram of number of active warp inst buffers at a given time
system.gpu.shader_cores0.lsq.warpInstBufActive::44        25722      0.23%     95.41% # Histogram of number of active warp inst buffers at a given time
system.gpu.shader_cores0.lsq.warpInstBufActive::45        17148      0.15%     95.56% # Histogram of number of active warp inst buffers at a given time
system.gpu.shader_cores0.lsq.warpInstBufActive::46        17148      0.15%     95.72% # Histogram of number of active warp inst buffers at a given time
system.gpu.shader_cores0.lsq.warpInstBufActive::47         2858      0.03%     95.74% # Histogram of number of active warp inst buffers at a given time
system.gpu.shader_cores0.lsq.warpInstBufActive::48        22864      0.20%     95.95% # Histogram of number of active warp inst buffers at a given time
system.gpu.shader_cores0.lsq.warpInstBufActive::49        10003      0.09%     96.04% # Histogram of number of active warp inst buffers at a given time
system.gpu.shader_cores0.lsq.warpInstBufActive::50        55731      0.50%     96.53% # Histogram of number of active warp inst buffers at a given time
system.gpu.shader_cores0.lsq.warpInstBufActive::51        15719      0.14%     96.67% # Histogram of number of active warp inst buffers at a given time
system.gpu.shader_cores0.lsq.warpInstBufActive::52        21435      0.19%     96.86% # Histogram of number of active warp inst buffers at a given time
system.gpu.shader_cores0.lsq.warpInstBufActive::53         5716      0.05%     96.91% # Histogram of number of active warp inst buffers at a given time
system.gpu.shader_cores0.lsq.warpInstBufActive::54        14290      0.13%     97.04% # Histogram of number of active warp inst buffers at a given time
system.gpu.shader_cores0.lsq.warpInstBufActive::55        21435      0.19%     97.23% # Histogram of number of active warp inst buffers at a given time
system.gpu.shader_cores0.lsq.warpInstBufActive::56         7145      0.06%     97.29% # Histogram of number of active warp inst buffers at a given time
system.gpu.shader_cores0.lsq.warpInstBufActive::57         2858      0.03%     97.32% # Histogram of number of active warp inst buffers at a given time
system.gpu.shader_cores0.lsq.warpInstBufActive::58        65734      0.58%     97.90% # Histogram of number of active warp inst buffers at a given time
system.gpu.shader_cores0.lsq.warpInstBufActive::59         2858      0.03%     97.93% # Histogram of number of active warp inst buffers at a given time
system.gpu.shader_cores0.lsq.warpInstBufActive::60        27151      0.24%     98.17% # Histogram of number of active warp inst buffers at a given time
system.gpu.shader_cores0.lsq.warpInstBufActive::61         2858      0.03%     98.20% # Histogram of number of active warp inst buffers at a given time
system.gpu.shader_cores0.lsq.warpInstBufActive::62        51444      0.46%     98.65% # Histogram of number of active warp inst buffers at a given time
system.gpu.shader_cores0.lsq.warpInstBufActive::63         5716      0.05%     98.70% # Histogram of number of active warp inst buffers at a given time
system.gpu.shader_cores0.lsq.warpInstBufActive::64       145758      1.30%    100.00% # Histogram of number of active warp inst buffers at a given time
system.gpu.shader_cores0.lsq.warpInstBufActive::total     11244801                       # Histogram of number of active warp inst buffers at a given time
system.gpu.shader_cores0.lsq.cacheAccesses     0.009744                       # Average number of concurrent outstanding cache accesses
system.gpu.shader_cores0.lsq.writebackBlockedCycles          102                       # Number of cycles blocked for core writeback stage
system.gpu.shader_cores0.lsq.mshrHitQueued          328                       # Number of hits on blocked lines in MSHRs
system.gpu.shader_cores0.lsq.mshrsFullCycles            0                       # Number of cycles stalled waiting for an MSHR
system.gpu.shader_cores0.lsq.mshrsFullCount            0                       # Number of times MSHRs filled
system.gpu.shader_cores0.lsq.warpCoalescedAccesses::samples          416                       # Number of coalesced accesses per warp instruction
system.gpu.shader_cores0.lsq.warpCoalescedAccesses::mean     1.769231                       # Number of coalesced accesses per warp instruction
system.gpu.shader_cores0.lsq.warpCoalescedAccesses::gmean     1.608176                       # Number of coalesced accesses per warp instruction
system.gpu.shader_cores0.lsq.warpCoalescedAccesses::stdev     0.763388                       # Number of coalesced accesses per warp instruction
system.gpu.shader_cores0.lsq.warpCoalescedAccesses::0            0      0.00%      0.00% # Number of coalesced accesses per warp instruction
system.gpu.shader_cores0.lsq.warpCoalescedAccesses::1          180     43.27%     43.27% # Number of coalesced accesses per warp instruction
system.gpu.shader_cores0.lsq.warpCoalescedAccesses::2          152     36.54%     79.81% # Number of coalesced accesses per warp instruction
system.gpu.shader_cores0.lsq.warpCoalescedAccesses::3           84     20.19%    100.00% # Number of coalesced accesses per warp instruction
system.gpu.shader_cores0.lsq.warpCoalescedAccesses::4            0      0.00%    100.00% # Number of coalesced accesses per warp instruction
system.gpu.shader_cores0.lsq.warpCoalescedAccesses::5            0      0.00%    100.00% # Number of coalesced accesses per warp instruction
system.gpu.shader_cores0.lsq.warpCoalescedAccesses::6            0      0.00%    100.00% # Number of coalesced accesses per warp instruction
system.gpu.shader_cores0.lsq.warpCoalescedAccesses::7            0      0.00%    100.00% # Number of coalesced accesses per warp instruction
system.gpu.shader_cores0.lsq.warpCoalescedAccesses::8            0      0.00%    100.00% # Number of coalesced accesses per warp instruction
system.gpu.shader_cores0.lsq.warpCoalescedAccesses::9            0      0.00%    100.00% # Number of coalesced accesses per warp instruction
system.gpu.shader_cores0.lsq.warpCoalescedAccesses::10            0      0.00%    100.00% # Number of coalesced accesses per warp instruction
system.gpu.shader_cores0.lsq.warpCoalescedAccesses::11            0      0.00%    100.00% # Number of coalesced accesses per warp instruction
system.gpu.shader_cores0.lsq.warpCoalescedAccesses::12            0      0.00%    100.00% # Number of coalesced accesses per warp instruction
system.gpu.shader_cores0.lsq.warpCoalescedAccesses::13            0      0.00%    100.00% # Number of coalesced accesses per warp instruction
system.gpu.shader_cores0.lsq.warpCoalescedAccesses::14            0      0.00%    100.00% # Number of coalesced accesses per warp instruction
system.gpu.shader_cores0.lsq.warpCoalescedAccesses::15            0      0.00%    100.00% # Number of coalesced accesses per warp instruction
system.gpu.shader_cores0.lsq.warpCoalescedAccesses::16            0      0.00%    100.00% # Number of coalesced accesses per warp instruction
system.gpu.shader_cores0.lsq.warpCoalescedAccesses::17            0      0.00%    100.00% # Number of coalesced accesses per warp instruction
system.gpu.shader_cores0.lsq.warpCoalescedAccesses::18            0      0.00%    100.00% # Number of coalesced accesses per warp instruction
system.gpu.shader_cores0.lsq.warpCoalescedAccesses::19            0      0.00%    100.00% # Number of coalesced accesses per warp instruction
system.gpu.shader_cores0.lsq.warpCoalescedAccesses::20            0      0.00%    100.00% # Number of coalesced accesses per warp instruction
system.gpu.shader_cores0.lsq.warpCoalescedAccesses::21            0      0.00%    100.00% # Number of coalesced accesses per warp instruction
system.gpu.shader_cores0.lsq.warpCoalescedAccesses::22            0      0.00%    100.00% # Number of coalesced accesses per warp instruction
system.gpu.shader_cores0.lsq.warpCoalescedAccesses::23            0      0.00%    100.00% # Number of coalesced accesses per warp instruction
system.gpu.shader_cores0.lsq.warpCoalescedAccesses::24            0      0.00%    100.00% # Number of coalesced accesses per warp instruction
system.gpu.shader_cores0.lsq.warpCoalescedAccesses::25            0      0.00%    100.00% # Number of coalesced accesses per warp instruction
system.gpu.shader_cores0.lsq.warpCoalescedAccesses::26            0      0.00%    100.00% # Number of coalesced accesses per warp instruction
system.gpu.shader_cores0.lsq.warpCoalescedAccesses::27            0      0.00%    100.00% # Number of coalesced accesses per warp instruction
system.gpu.shader_cores0.lsq.warpCoalescedAccesses::28            0      0.00%    100.00% # Number of coalesced accesses per warp instruction
system.gpu.shader_cores0.lsq.warpCoalescedAccesses::29            0      0.00%    100.00% # Number of coalesced accesses per warp instruction
system.gpu.shader_cores0.lsq.warpCoalescedAccesses::30            0      0.00%    100.00% # Number of coalesced accesses per warp instruction
system.gpu.shader_cores0.lsq.warpCoalescedAccesses::31            0      0.00%    100.00% # Number of coalesced accesses per warp instruction
system.gpu.shader_cores0.lsq.warpCoalescedAccesses::32            0      0.00%    100.00% # Number of coalesced accesses per warp instruction
system.gpu.shader_cores0.lsq.warpCoalescedAccesses::total          416                       # Number of coalesced accesses per warp instruction
system.gpu.shader_cores0.lsq.warpLatencyRead::samples          288                       # Latency in cycles for whole warp to finish the read
system.gpu.shader_cores0.lsq.warpLatencyRead::mean   218.864583                       # Latency in cycles for whole warp to finish the read
system.gpu.shader_cores0.lsq.warpLatencyRead::gmean    96.334597                       # Latency in cycles for whole warp to finish the read
system.gpu.shader_cores0.lsq.warpLatencyRead::stdev   203.175434                       # Latency in cycles for whole warp to finish the read
system.gpu.shader_cores0.lsq.warpLatencyRead::0-63          101     35.07%     35.07% # Latency in cycles for whole warp to finish the read
system.gpu.shader_cores0.lsq.warpLatencyRead::64-127           19      6.60%     41.67% # Latency in cycles for whole warp to finish the read
system.gpu.shader_cores0.lsq.warpLatencyRead::128-191           40     13.89%     55.56% # Latency in cycles for whole warp to finish the read
system.gpu.shader_cores0.lsq.warpLatencyRead::192-255           24      8.33%     63.89% # Latency in cycles for whole warp to finish the read
system.gpu.shader_cores0.lsq.warpLatencyRead::256-319           20      6.94%     70.83% # Latency in cycles for whole warp to finish the read
system.gpu.shader_cores0.lsq.warpLatencyRead::320-383            8      2.78%     73.61% # Latency in cycles for whole warp to finish the read
system.gpu.shader_cores0.lsq.warpLatencyRead::384-447           19      6.60%     80.21% # Latency in cycles for whole warp to finish the read
system.gpu.shader_cores0.lsq.warpLatencyRead::448-511           17      5.90%     86.11% # Latency in cycles for whole warp to finish the read
system.gpu.shader_cores0.lsq.warpLatencyRead::512-575           25      8.68%     94.79% # Latency in cycles for whole warp to finish the read
system.gpu.shader_cores0.lsq.warpLatencyRead::576-639           12      4.17%     98.96% # Latency in cycles for whole warp to finish the read
system.gpu.shader_cores0.lsq.warpLatencyRead::640-703            3      1.04%    100.00% # Latency in cycles for whole warp to finish the read
system.gpu.shader_cores0.lsq.warpLatencyRead::704-767            0      0.00%    100.00% # Latency in cycles for whole warp to finish the read
system.gpu.shader_cores0.lsq.warpLatencyRead::768-831            0      0.00%    100.00% # Latency in cycles for whole warp to finish the read
system.gpu.shader_cores0.lsq.warpLatencyRead::832-895            0      0.00%    100.00% # Latency in cycles for whole warp to finish the read
system.gpu.shader_cores0.lsq.warpLatencyRead::896-959            0      0.00%    100.00% # Latency in cycles for whole warp to finish the read
system.gpu.shader_cores0.lsq.warpLatencyRead::960-1023            0      0.00%    100.00% # Latency in cycles for whole warp to finish the read
system.gpu.shader_cores0.lsq.warpLatencyRead::total          288                       # Latency in cycles for whole warp to finish the read
system.gpu.shader_cores0.lsq.warpLatencyWrite::samples          128                       # Latency in cycles for whole warp to finish the write
system.gpu.shader_cores0.lsq.warpLatencyWrite::mean   348.390625                       # Latency in cycles for whole warp to finish the write
system.gpu.shader_cores0.lsq.warpLatencyWrite::gmean   319.847055                       # Latency in cycles for whole warp to finish the write
system.gpu.shader_cores0.lsq.warpLatencyWrite::stdev   141.490115                       # Latency in cycles for whole warp to finish the write
system.gpu.shader_cores0.lsq.warpLatencyWrite::0-63            0      0.00%      0.00% # Latency in cycles for whole warp to finish the write
system.gpu.shader_cores0.lsq.warpLatencyWrite::64-127            1      0.78%      0.78% # Latency in cycles for whole warp to finish the write
system.gpu.shader_cores0.lsq.warpLatencyWrite::128-191           17     13.28%     14.06% # Latency in cycles for whole warp to finish the write
system.gpu.shader_cores0.lsq.warpLatencyWrite::192-255           22     17.19%     31.25% # Latency in cycles for whole warp to finish the write
system.gpu.shader_cores0.lsq.warpLatencyWrite::256-319           22     17.19%     48.44% # Latency in cycles for whole warp to finish the write
system.gpu.shader_cores0.lsq.warpLatencyWrite::320-383           15     11.72%     60.16% # Latency in cycles for whole warp to finish the write
system.gpu.shader_cores0.lsq.warpLatencyWrite::384-447           19     14.84%     75.00% # Latency in cycles for whole warp to finish the write
system.gpu.shader_cores0.lsq.warpLatencyWrite::448-511           18     14.06%     89.06% # Latency in cycles for whole warp to finish the write
system.gpu.shader_cores0.lsq.warpLatencyWrite::512-575            2      1.56%     90.62% # Latency in cycles for whole warp to finish the write
system.gpu.shader_cores0.lsq.warpLatencyWrite::576-639            7      5.47%     96.09% # Latency in cycles for whole warp to finish the write
system.gpu.shader_cores0.lsq.warpLatencyWrite::640-703            3      2.34%     98.44% # Latency in cycles for whole warp to finish the write
system.gpu.shader_cores0.lsq.warpLatencyWrite::704-767            2      1.56%    100.00% # Latency in cycles for whole warp to finish the write
system.gpu.shader_cores0.lsq.warpLatencyWrite::768-831            0      0.00%    100.00% # Latency in cycles for whole warp to finish the write
system.gpu.shader_cores0.lsq.warpLatencyWrite::832-895            0      0.00%    100.00% # Latency in cycles for whole warp to finish the write
system.gpu.shader_cores0.lsq.warpLatencyWrite::896-959            0      0.00%    100.00% # Latency in cycles for whole warp to finish the write
system.gpu.shader_cores0.lsq.warpLatencyWrite::960-1023            0      0.00%    100.00% # Latency in cycles for whole warp to finish the write
system.gpu.shader_cores0.lsq.warpLatencyWrite::total          128                       # Latency in cycles for whole warp to finish the write
system.gpu.shader_cores0.lsq.warpLatencyFence::samples          288                       # Latency in cycles for whole warp to finish the fence
system.gpu.shader_cores0.lsq.warpLatencyFence::mean    78.277778                       # Latency in cycles for whole warp to finish the fence
system.gpu.shader_cores0.lsq.warpLatencyFence::gmean    14.677880                       # Latency in cycles for whole warp to finish the fence
system.gpu.shader_cores0.lsq.warpLatencyFence::stdev   148.607963                       # Latency in cycles for whole warp to finish the fence
system.gpu.shader_cores0.lsq.warpLatencyFence::0-63          224     77.78%     77.78% # Latency in cycles for whole warp to finish the fence
system.gpu.shader_cores0.lsq.warpLatencyFence::64-127            1      0.35%     78.12% # Latency in cycles for whole warp to finish the fence
system.gpu.shader_cores0.lsq.warpLatencyFence::128-191           10      3.47%     81.60% # Latency in cycles for whole warp to finish the fence
system.gpu.shader_cores0.lsq.warpLatencyFence::192-255           14      4.86%     86.46% # Latency in cycles for whole warp to finish the fence
system.gpu.shader_cores0.lsq.warpLatencyFence::256-319            8      2.78%     89.24% # Latency in cycles for whole warp to finish the fence
system.gpu.shader_cores0.lsq.warpLatencyFence::320-383            2      0.69%     89.93% # Latency in cycles for whole warp to finish the fence
system.gpu.shader_cores0.lsq.warpLatencyFence::384-447           13      4.51%     94.44% # Latency in cycles for whole warp to finish the fence
system.gpu.shader_cores0.lsq.warpLatencyFence::448-511           12      4.17%     98.61% # Latency in cycles for whole warp to finish the fence
system.gpu.shader_cores0.lsq.warpLatencyFence::512-575            1      0.35%     98.96% # Latency in cycles for whole warp to finish the fence
system.gpu.shader_cores0.lsq.warpLatencyFence::576-639            3      1.04%    100.00% # Latency in cycles for whole warp to finish the fence
system.gpu.shader_cores0.lsq.warpLatencyFence::640-703            0      0.00%    100.00% # Latency in cycles for whole warp to finish the fence
system.gpu.shader_cores0.lsq.warpLatencyFence::704-767            0      0.00%    100.00% # Latency in cycles for whole warp to finish the fence
system.gpu.shader_cores0.lsq.warpLatencyFence::768-831            0      0.00%    100.00% # Latency in cycles for whole warp to finish the fence
system.gpu.shader_cores0.lsq.warpLatencyFence::832-895            0      0.00%    100.00% # Latency in cycles for whole warp to finish the fence
system.gpu.shader_cores0.lsq.warpLatencyFence::896-959            0      0.00%    100.00% # Latency in cycles for whole warp to finish the fence
system.gpu.shader_cores0.lsq.warpLatencyFence::960-1023            0      0.00%    100.00% # Latency in cycles for whole warp to finish the fence
system.gpu.shader_cores0.lsq.warpLatencyFence::total          288                       # Latency in cycles for whole warp to finish the fence
system.gpu.shader_cores0.lsq.warpLatencyAtomic::samples            0                       # Latency in cycles for whole warp to finish the atomic
system.gpu.shader_cores0.lsq.warpLatencyAtomic::mean          nan                       # Latency in cycles for whole warp to finish the atomic
system.gpu.shader_cores0.lsq.warpLatencyAtomic::gmean          nan                       # Latency in cycles for whole warp to finish the atomic
system.gpu.shader_cores0.lsq.warpLatencyAtomic::stdev          nan                       # Latency in cycles for whole warp to finish the atomic
system.gpu.shader_cores0.lsq.warpLatencyAtomic::0            0                       # Latency in cycles for whole warp to finish the atomic
system.gpu.shader_cores0.lsq.warpLatencyAtomic::1            0                       # Latency in cycles for whole warp to finish the atomic
system.gpu.shader_cores0.lsq.warpLatencyAtomic::2            0                       # Latency in cycles for whole warp to finish the atomic
system.gpu.shader_cores0.lsq.warpLatencyAtomic::3            0                       # Latency in cycles for whole warp to finish the atomic
system.gpu.shader_cores0.lsq.warpLatencyAtomic::4            0                       # Latency in cycles for whole warp to finish the atomic
system.gpu.shader_cores0.lsq.warpLatencyAtomic::5            0                       # Latency in cycles for whole warp to finish the atomic
system.gpu.shader_cores0.lsq.warpLatencyAtomic::6            0                       # Latency in cycles for whole warp to finish the atomic
system.gpu.shader_cores0.lsq.warpLatencyAtomic::7            0                       # Latency in cycles for whole warp to finish the atomic
system.gpu.shader_cores0.lsq.warpLatencyAtomic::8            0                       # Latency in cycles for whole warp to finish the atomic
system.gpu.shader_cores0.lsq.warpLatencyAtomic::9            0                       # Latency in cycles for whole warp to finish the atomic
system.gpu.shader_cores0.lsq.warpLatencyAtomic::10            0                       # Latency in cycles for whole warp to finish the atomic
system.gpu.shader_cores0.lsq.warpLatencyAtomic::11            0                       # Latency in cycles for whole warp to finish the atomic
system.gpu.shader_cores0.lsq.warpLatencyAtomic::12            0                       # Latency in cycles for whole warp to finish the atomic
system.gpu.shader_cores0.lsq.warpLatencyAtomic::13            0                       # Latency in cycles for whole warp to finish the atomic
system.gpu.shader_cores0.lsq.warpLatencyAtomic::14            0                       # Latency in cycles for whole warp to finish the atomic
system.gpu.shader_cores0.lsq.warpLatencyAtomic::15            0                       # Latency in cycles for whole warp to finish the atomic
system.gpu.shader_cores0.lsq.warpLatencyAtomic::total            0                       # Latency in cycles for whole warp to finish the atomic
system.gpu.shader_cores0.lsq.tlbMissLatency::samples            0                       # Latency in cycles for TLB miss
system.gpu.shader_cores0.lsq.tlbMissLatency::mean          nan                       # Latency in cycles for TLB miss
[...]
system.ruby.Locked_RMW_Read.L1Cache.hit_type_mach_latency_hist::total           10                      
system.ruby.Locked_RMW_Write.L1Cache.hit_type_mach_latency_hist::bucket_size            1                      
system.ruby.Locked_RMW_Write.L1Cache.hit_type_mach_latency_hist::max_bucket            9                      
system.ruby.Locked_RMW_Write.L1Cache.hit_type_mach_latency_hist::samples           10                      
system.ruby.Locked_RMW_Write.L1Cache.hit_type_mach_latency_hist::mean            2                      
system.ruby.Locked_RMW_Write.L1Cache.hit_type_mach_latency_hist::gmean            2                      
system.ruby.Locked_RMW_Write.L1Cache.hit_type_mach_latency_hist |           0      0.00%      0.00% |           0      0.00%      0.00% |          10    100.00%    100.00% |           0      0.00%    100.00% |           0      0.00%    100.00% |           0      0.00%    100.00% |           0      0.00%    100.00% |           0      0.00%    100.00% |           0      0.00%    100.00% |           0      0.00%    100.00%
system.ruby.Locked_RMW_Write.L1Cache.hit_type_mach_latency_hist::total           10                      
system.ruby.Directory_Controller.GETX    |         783     98.99%     98.99% |           8      1.01%    100.00%
system.ruby.Directory_Controller.GETX::total          791                      
system.ruby.Directory_Controller.GETS    |         647     59.85%     59.85% |         434     40.15%    100.00%
system.ruby.Directory_Controller.GETS::total         1081                      
system.ruby.Directory_Controller.UnblockM |        1430     76.39%     76.39% |         442     23.61%    100.00%
system.ruby.Directory_Controller.UnblockM::total         1872                      
system.ruby.Directory_Controller.DMA_READ |         423     73.31%     73.31% |         154     26.69%    100.00%
system.ruby.Directory_Controller.DMA_READ::total          577                      
system.ruby.Directory_Controller.DMA_WRITE |         155     26.91%     26.91% |         421     73.09%    100.00%
system.ruby.Directory_Controller.DMA_WRITE::total          576                      
system.ruby.Directory_Controller.Memory_Data |        1562     77.94%     77.94% |         442     22.06%    100.00%
system.ruby.Directory_Controller.Memory_Data::total         2004                      
system.ruby.Directory_Controller.Memory_Ack |         155     26.91%     26.91% |         421     73.09%    100.00%
system.ruby.Directory_Controller.Memory_Ack::total          576                      
system.ruby.Directory_Controller.Ack     |         855     49.88%     49.88% |         859     50.12%    100.00%
system.ruby.Directory_Controller.Ack::total         1714                      
system.ruby.Directory_Controller.Shared_Data |           6     40.00%     40.00% |           9     60.00%    100.00%
system.ruby.Directory_Controller.Shared_Data::total           15                      
system.ruby.Directory_Controller.Data    |           5    100.00%    100.00% |           0      0.00%    100.00%
system.ruby.Directory_Controller.Data::total            5                      
system.ruby.Directory_Controller.Exclusive_Data |         290     50.70%     50.70% |         282     49.30%    100.00%
system.ruby.Directory_Controller.Exclusive_Data::total          572                      
system.ruby.Directory_Controller.All_acks_and_shared_data |           6     40.00%     40.00% |           9     60.00%    100.00%
system.ruby.Directory_Controller.All_acks_and_shared_data::total           15                      
system.ruby.Directory_Controller.All_acks_and_data_no_sharers |         572     50.26%     50.26% |         566     49.74%    100.00%
system.ruby.Directory_Controller.All_acks_and_data_no_sharers::total         1138                      
system.ruby.Directory_Controller.NO.DMA_READ |         290     65.32%     65.32% |         154     34.68%    100.00%
system.ruby.Directory_Controller.NO.DMA_READ::total          444                      
system.ruby.Directory_Controller.NO.DMA_WRITE |           5      3.52%      3.52% |         137     96.48%    100.00%
system.ruby.Directory_Controller.NO.DMA_WRITE::total          142                      
system.ruby.Directory_Controller.S.DMA_READ |           1    100.00%    100.00% |           0      0.00%    100.00%
system.ruby.Directory_Controller.S.DMA_READ::total            1                      
system.ruby.Directory_Controller.S.DMA_WRITE |           5    100.00%    100.00% |           0      0.00%    100.00%
system.ruby.Directory_Controller.S.DMA_WRITE::total            5                      
system.ruby.Directory_Controller.E.GETX  |         783     98.99%     98.99% |           8      1.01%    100.00%
system.ruby.Directory_Controller.E.GETX::total          791                      
system.ruby.Directory_Controller.E.GETS  |         647     59.85%     59.85% |         434     40.15%    100.00%
system.ruby.Directory_Controller.E.GETS::total         1081                      
system.ruby.Directory_Controller.E.DMA_READ |         132    100.00%    100.00% |           0      0.00%    100.00%
system.ruby.Directory_Controller.E.DMA_READ::total          132                      
system.ruby.Directory_Controller.E.DMA_WRITE |         145     33.80%     33.80% |         284     66.20%    100.00%
system.ruby.Directory_Controller.E.DMA_WRITE::total          429                      
system.ruby.Directory_Controller.NO_B.UnblockM |        1430     76.39%     76.39% |         442     23.61%    100.00%
system.ruby.Directory_Controller.NO_B.UnblockM::total         1872                      
system.ruby.Directory_Controller.NO_B_W.Memory_Data |        1430     76.39%     76.39% |         442     23.61%    100.00%
system.ruby.Directory_Controller.NO_B_W.Memory_Data::total         1872                      
system.ruby.Directory_Controller.NO_DW_B_W.Ack |         300     29.85%     29.85% |         705     70.15%    100.00%
system.ruby.Directory_Controller.NO_DW_B_W.Ack::total         1005                      
system.ruby.Directory_Controller.NO_DW_B_W.Data |           5    100.00%    100.00% |           0      0.00%    100.00%
system.ruby.Directory_Controller.NO_DW_B_W.Data::total            5                      
system.ruby.Directory_Controller.NO_DW_B_W.Exclusive_Data |           5      3.52%      3.52% |         137     96.48%    100.00%
system.ruby.Directory_Controller.NO_DW_B_W.Exclusive_Data::total          142                      
system.ruby.Directory_Controller.NO_DW_B_W.All_acks_and_data_no_sharers |         155     26.91%     26.91% |         421     73.09%    100.00%
system.ruby.Directory_Controller.NO_DW_B_W.All_acks_and_data_no_sharers::total          576                      
system.ruby.Directory_Controller.NO_DR_B_W.Memory_Data |         132    100.00%    100.00% |           0      0.00%    100.00%
system.ruby.Directory_Controller.NO_DR_B_W.Memory_Data::total          132                      
system.ruby.Directory_Controller.NO_DR_B_W.Ack |         264    100.00%    100.00% |           0      0.00%    100.00%
system.ruby.Directory_Controller.NO_DR_B_W.Ack::total          264                      
system.ruby.Directory_Controller.NO_DR_B_D.Ack |         291     65.39%     65.39% |         154     34.61%    100.00%
system.ruby.Directory_Controller.NO_DR_B_D.Ack::total          445                      
system.ruby.Directory_Controller.NO_DR_B_D.Shared_Data |           6     40.00%     40.00% |           9     60.00%    100.00%
system.ruby.Directory_Controller.NO_DR_B_D.Shared_Data::total           15                      
system.ruby.Directory_Controller.NO_DR_B_D.Exclusive_Data |         285     66.28%     66.28% |         145     33.72%    100.00%
system.ruby.Directory_Controller.NO_DR_B_D.Exclusive_Data::total          430                      
system.ruby.Directory_Controller.NO_DR_B_D.All_acks_and_shared_data |           6     40.00%     40.00% |           9     60.00%    100.00%
system.ruby.Directory_Controller.NO_DR_B_D.All_acks_and_shared_data::total           15                      
system.ruby.Directory_Controller.NO_DR_B_D.All_acks_and_data_no_sharers |         285     66.28%     66.28% |         145     33.72%    100.00%
system.ruby.Directory_Controller.NO_DR_B_D.All_acks_and_data_no_sharers::total          430                      
system.ruby.Directory_Controller.NO_DR_B.All_acks_and_data_no_sharers |         132    100.00%    100.00% |           0      0.00%    100.00%
system.ruby.Directory_Controller.NO_DR_B.All_acks_and_data_no_sharers::total          132                      
system.ruby.Directory_Controller.NO_DW_W.Memory_Ack |         155     26.91%     26.91% |         421     73.09%    100.00%
system.ruby.Directory_Controller.NO_DW_W.Memory_Ack::total          576                      
system.ruby.L1Cache_Controller.Load           1237984      0.00%      0.00%
system.ruby.L1Cache_Controller.Ifetch         6646361      0.00%      0.00%
system.ruby.L1Cache_Controller.Store           843082      0.00%      0.00%
system.ruby.L1Cache_Controller.L1_to_L2          6165      0.00%      0.00%
system.ruby.L1Cache_Controller.Trigger_L2_to_L1D          506      0.00%      0.00%
system.ruby.L1Cache_Controller.Trigger_L2_to_L1I         5063      0.00%      0.00%
system.ruby.L1Cache_Controller.Complete_L2_to_L1         5569      0.00%      0.00%
system.ruby.L1Cache_Controller.Other_GETX          584      0.00%      0.00%
system.ruby.L1Cache_Controller.Other_GETS         1011      0.00%      0.00%
system.ruby.L1Cache_Controller.Ack               1430      0.00%      0.00%
system.ruby.L1Cache_Controller.Exclusive_Data         1430      0.00%      0.00%
system.ruby.L1Cache_Controller.All_acks_no_sharers         1430      0.00%      0.00%
system.ruby.L1Cache_Controller.I.Load             146      0.00%      0.00%
system.ruby.L1Cache_Controller.I.Ifetch           457      0.00%      0.00%
system.ruby.L1Cache_Controller.I.Store            783      0.00%      0.00%
system.ruby.L1Cache_Controller.I.L1_to_L2          110      0.00%      0.00%
system.ruby.L1Cache_Controller.I.Trigger_L2_to_L1D           44      0.00%      0.00%
system.ruby.L1Cache_Controller.I.Other_GETX          574      0.00%      0.00%
system.ruby.L1Cache_Controller.I.Other_GETS          720      0.00%      0.00%
system.ruby.L1Cache_Controller.O.Load               6      0.00%      0.00%
system.ruby.L1Cache_Controller.O.Other_GETX            5      0.00%      0.00%
system.ruby.L1Cache_Controller.O.Other_GETS            1      0.00%      0.00%
system.ruby.L1Cache_Controller.M.Load          103160      0.00%      0.00%
system.ruby.L1Cache_Controller.M.Ifetch       6640841      0.00%      0.00%
system.ruby.L1Cache_Controller.M.Store             28      0.00%      0.00%
system.ruby.L1Cache_Controller.M.L1_to_L2         5399      0.00%      0.00%
system.ruby.L1Cache_Controller.M.Trigger_L2_to_L1D           21      0.00%      0.00%
system.ruby.L1Cache_Controller.M.Trigger_L2_to_L1I         5063      0.00%      0.00%
system.ruby.L1Cache_Controller.M.Other_GETX            5      0.00%      0.00%
system.ruby.L1Cache_Controller.M.Other_GETS            5      0.00%      0.00%
system.ruby.L1Cache_Controller.MM.Load        1134188      0.00%      0.00%
system.ruby.L1Cache_Controller.MM.Store        842249      0.00%      0.00%
system.ruby.L1Cache_Controller.MM.L1_to_L2          656      0.00%      0.00%
system.ruby.L1Cache_Controller.MM.Trigger_L2_to_L1D          441      0.00%      0.00%
system.ruby.L1Cache_Controller.MM.Other_GETS          285      0.00%      0.00%
system.ruby.L1Cache_Controller.IR.Load             44      0.00%      0.00%
system.ruby.L1Cache_Controller.MR.Load             20      0.00%      0.00%
system.ruby.L1Cache_Controller.MR.Ifetch         5063      0.00%      0.00%
system.ruby.L1Cache_Controller.MR.Store             1      0.00%      0.00%
system.ruby.L1Cache_Controller.MMR.Load           420      0.00%      0.00%
system.ruby.L1Cache_Controller.MMR.Store           21      0.00%      0.00%
system.ruby.L1Cache_Controller.IM.Ack             783      0.00%      0.00%
system.ruby.L1Cache_Controller.IM.Exclusive_Data          783      0.00%      0.00%
system.ruby.L1Cache_Controller.M_W.All_acks_no_sharers          647      0.00%      0.00%
system.ruby.L1Cache_Controller.MM_W.All_acks_no_sharers          783      0.00%      0.00%
system.ruby.L1Cache_Controller.IS.Ack             647      0.00%      0.00%
system.ruby.L1Cache_Controller.IS.Exclusive_Data          647      0.00%      0.00%
system.ruby.L1Cache_Controller.IT.Complete_L2_to_L1           44      0.00%      0.00%
system.ruby.L1Cache_Controller.MT.Complete_L2_to_L1         5084      0.00%      0.00%
system.ruby.L1Cache_Controller.MMT.Complete_L2_to_L1          441      0.00%      0.00%
system.ruby.GPUL1Cache_Controller.Load   |         428     25.28%     25.28% |         421     24.87%     50.15% |         428     25.28%     75.43% |         416     24.57%    100.00%
system.ruby.GPUL1Cache_Controller.Load::total         1693                      
system.ruby.GPUL1Cache_Controller.Ifetch |          12     24.49%     24.49% |          13     26.53%     51.02% |          12     24.49%     75.51% |          12     24.49%    100.00%
system.ruby.GPUL1Cache_Controller.Ifetch::total           49                      
system.ruby.GPUL1Cache_Controller.Store  |         308     24.48%     24.48% |         322     25.60%     50.08% |         308     24.48%     74.56% |         320     25.44%    100.00%
system.ruby.GPUL1Cache_Controller.Store::total         1258                      
system.ruby.GPUL1Cache_Controller.Data   |         129     24.11%     24.11% |         140     26.17%     50.28% |         129     24.11%     74.39% |         137     25.61%    100.00%
system.ruby.GPUL1Cache_Controller.Data::total          535                      
system.ruby.GPUL1Cache_Controller.Write_Ack |         308     24.48%     24.48% |         322     25.60%     50.08% |         308     24.48%     74.56% |         320     25.44%    100.00%
system.ruby.GPUL1Cache_Controller.Write_Ack::total         1258                      
system.ruby.GPUL1Cache_Controller.I.Load |         117     24.07%     24.07% |         127     26.13%     50.21% |         117     24.07%     74.28% |         125     25.72%    100.00%
system.ruby.GPUL1Cache_Controller.I.Load::total          486                      
system.ruby.GPUL1Cache_Controller.I.Ifetch |          12     24.49%     24.49% |          13     26.53%     51.02% |          12     24.49%     75.51% |          12     24.49%    100.00%
system.ruby.GPUL1Cache_Controller.I.Ifetch::total           49                      
system.ruby.GPUL1Cache_Controller.I.Store |         200     25.00%     25.00% |         200     25.00%     50.00% |         200     25.00%     75.00% |         200     25.00%    100.00%
system.ruby.GPUL1Cache_Controller.I.Store::total          800                      
system.ruby.GPUL1Cache_Controller.V.Load |         311     25.77%     25.77% |         294     24.36%     50.12% |         311     25.77%     75.89% |         291     24.11%    100.00%
system.ruby.GPUL1Cache_Controller.V.Load::total         1207                      
system.ruby.GPUL1Cache_Controller.V.Store |         108     23.58%     23.58% |         122     26.64%     50.22% |         108     23.58%     73.80% |         120     26.20%    100.00%
system.ruby.GPUL1Cache_Controller.V.Store::total          458                      
system.ruby.GPUL1Cache_Controller.IA.Write_Ack |         308     24.48%     24.48% |         322     25.60%     50.08% |         308     24.48%     74.56% |         320     25.44%    100.00%
system.ruby.GPUL1Cache_Controller.IA.Write_Ack::total         1258                      
system.ruby.GPUL1Cache_Controller.IV.Data |         129     24.11%     24.11% |         140     26.17%     50.28% |         129     24.11%     74.39% |         137     25.61%    100.00%
system.ruby.GPUL1Cache_Controller.IV.Data::total          535                      
system.ruby.GPUL2Cache_Controller.Get             633      0.00%      0.00%
system.ruby.GPUL2Cache_Controller.Store          1266      0.00%      0.00%
system.ruby.GPUL2Cache_Controller.Other_GETX         1359      0.00%      0.00%
system.ruby.GPUL2Cache_Controller.Other_GETS         1224      0.00%      0.00%
system.ruby.GPUL2Cache_Controller.Ack             442      0.00%      0.00%
system.ruby.GPUL2Cache_Controller.Exclusive_Data          442      0.00%      0.00%
system.ruby.GPUL2Cache_Controller.All_acks_no_sharers          442      0.00%      0.00%
system.ruby.GPUL2Cache_Controller.I.Get           434      0.00%      0.00%
system.ruby.GPUL2Cache_Controller.I.Store            8      0.00%      0.00%
system.ruby.GPUL2Cache_Controller.I.Other_GETX         1222      0.00%      0.00%
system.ruby.GPUL2Cache_Controller.I.Other_GETS         1070      0.00%      0.00%
system.ruby.GPUL2Cache_Controller.M.Get            99      0.00%      0.00%
system.ruby.GPUL2Cache_Controller.M.Store          411      0.00%      0.00%
system.ruby.GPUL2Cache_Controller.M.Other_GETS            9      0.00%      0.00%
system.ruby.GPUL2Cache_Controller.MM.Get            2      0.00%      0.00%
system.ruby.GPUL2Cache_Controller.MM.Store          839      0.00%      0.00%
system.ruby.GPUL2Cache_Controller.MM.Other_GETX          137      0.00%      0.00%
system.ruby.GPUL2Cache_Controller.MM.Other_GETS          145      0.00%      0.00%
system.ruby.GPUL2Cache_Controller.IM.Store            8      0.00%      0.00%
system.ruby.GPUL2Cache_Controller.IM.Ack            8      0.00%      0.00%
system.ruby.GPUL2Cache_Controller.IM.Exclusive_Data            8      0.00%      0.00%
system.ruby.GPUL2Cache_Controller.IS.Get           98      0.00%      0.00%
system.ruby.GPUL2Cache_Controller.IS.Ack          434      0.00%      0.00%
system.ruby.GPUL2Cache_Controller.IS.Exclusive_Data          434      0.00%      0.00%
system.ruby.GPUL2Cache_Controller.M_W.All_acks_no_sharers          434      0.00%      0.00%
system.ruby.GPUL2Cache_Controller.MM_W.All_acks_no_sharers            8      0.00%      0.00%
system.ruby.GPUCopyDMA_Controller.ReadRequest |         423     73.31%     73.31% |         154     26.69%    100.00%
system.ruby.GPUCopyDMA_Controller.ReadRequest::total          577                      
system.ruby.GPUCopyDMA_Controller.WriteRequest |         155     26.91%     26.91% |         421     73.09%    100.00%
system.ruby.GPUCopyDMA_Controller.WriteRequest::total          576                      
system.ruby.GPUCopyDMA_Controller.Data   |         423     73.31%     73.31% |         154     26.69%    100.00%
system.ruby.GPUCopyDMA_Controller.Data::total          577                      
system.ruby.GPUCopyDMA_Controller.Ack    |         155     26.91%     26.91% |         421     73.09%    100.00%
system.ruby.GPUCopyDMA_Controller.Ack::total          576                      
system.ruby.GPUCopyDMA_Controller.READY.ReadRequest |         423     73.31%     73.31% |         154     26.69%    100.00%
system.ruby.GPUCopyDMA_Controller.READY.ReadRequest::total          577                      
system.ruby.GPUCopyDMA_Controller.READY.WriteRequest |         155     26.91%     26.91% |         421     73.09%    100.00%
system.ruby.GPUCopyDMA_Controller.READY.WriteRequest::total          576                      
system.ruby.GPUCopyDMA_Controller.BUSY_RD.Data |         423     73.31%     73.31% |         154     26.69%    100.00%
system.ruby.GPUCopyDMA_Controller.BUSY_RD.Data::total          577                      
system.ruby.GPUCopyDMA_Controller.BUSY_WR.Ack |         155     26.91%     26.91% |         421     73.09%    100.00%
system.ruby.GPUCopyDMA_Controller.BUSY_WR.Ack::total          576                      

---------- End Simulation Statistics   ----------
