
---------- Begin Simulation Statistics ----------
sim_seconds                                  0.008914                       # Number of seconds simulated
sim_ticks                                  8913886500                       # Number of ticks simulated
final_tick                                 8913886500                       # Number of ticks from beginning of simulation (restored from checkpoints and never reset)
sim_freq                                 1000000000000                       # Frequency of simulated ticks
host_inst_rate                                 228826                       # Simulator instruction rate (inst/s)
host_op_rate                                   437193                       # Simulator op (including micro ops) rate (op/s)
host_tick_rate                              412361772                       # Simulator tick rate (ticks/s)
host_mem_usage                                4513188                       # Number of bytes of host memory used
host_seconds                                    21.62                       # Real time elapsed on the host
sim_insts                                     4946452                       # Number of instructions simulated
sim_ops                                       9450648                       # Number of ops (including micro ops) simulated
system.voltage_domain.voltage                       1                       # Voltage in Volts
system.clk_domain.clock                          1000                       # Clock period in ticks
system.mem_ctrls.clk_domain.clock                2500                       # Clock period in ticks
system.dev_mem_ctrls.bytes_read::ruby.dev_dir_cntrl0        56576                       # Number of bytes read from this memory
system.dev_mem_ctrls.bytes_read::total          56576                       # Number of bytes read from this memory
system.dev_mem_ctrls.bytes_written::ruby.dev_dir_cntrl0        72448                       # Number of bytes written to this memory
system.dev_mem_ctrls.bytes_written::total        72448                       # Number of bytes written to this memory
system.dev_mem_ctrls.num_reads::ruby.dev_dir_cntrl0          442                       # Number of read requests responded to by this memory
system.dev_mem_ctrls.num_reads::total             442                       # Number of read requests responded to by this memory
system.dev_mem_ctrls.num_writes::ruby.dev_dir_cntrl0          566                       # Number of write requests responded to by this memory
system.dev_mem_ctrls.num_writes::total            566                       # Number of write requests responded to by this memory
system.dev_mem_ctrls.bw_read::ruby.dev_dir_cntrl0      6346951                       # Total read bandwidth from this memory (bytes/s)
system.dev_mem_ctrls.bw_read::total           6346951                       # Total read bandwidth from this memory (bytes/s)
system.dev_mem_ctrls.bw_write::ruby.dev_dir_cntrl0      8127543                       # Write bandwidth from this memory (bytes/s)
system.dev_mem_ctrls.bw_write::total          8127543                       # Write bandwidth from this memory (bytes/s)
system.dev_mem_ctrls.bw_total::ruby.dev_dir_cntrl0     14474494                       # Total bandwidth to/from this memory (bytes/s)
system.dev_mem_ctrls.bw_total::total         14474494                       # Total bandwidth to/from this memory (bytes/s)
system.dev_mem_ctrls.memReq                      1008                       # Total number of memory requests
system.dev_mem_ctrls.memRead                      442                       # Number of memory reads
system.dev_mem_ctrls.memWrite                     566                       # Number of memory writes
system.dev_mem_ctrls.memRefresh                   319                       # Number of memory refreshes
system.dev_mem_ctrls.memWaitCycles              36318                       # Delay stalled at the head of the bank queue
system.dev_mem_ctrls.memInputQ                  11655                       # Delay in the input queue
system.dev_mem_ctrls.memBankQ                   32995                       # Delay behind the head of the bank queue
system.dev_mem_ctrls.totalStalls                80968                       # Total number of stall cycles
system.dev_mem_ctrls.stallsPerReq           80.325397                       # Expected number of stall cycles per request
system.dev_mem_ctrls.memBankBusy                 6304                       # memory stalls due to busy bank
system.dev_mem_ctrls.memBusBusy                 10197                       # memory stalls due to busy bus
system.dev_mem_ctrls.memDataBusBusy              1846                       # memory stalls due to read read turnaround
system.dev_mem_ctrls.memArbWait                  7970                       # memory stalls due to arbitration
system.dev_mem_ctrls.memNotOld                  10001                       # memory stalls due to anti starvation
system.dev_mem_ctrls.memBankCount        |          30      2.98%      2.98% |          30      2.98%      5.95% |          30      2.98%      8.93% |          30      2.98%     11.90% |          30      2.98%     14.88% |          30      2.98%     17.86% |          29      2.88%     20.73% |          28      2.78%     23.51% |          28      2.78%     26.29% |          30      2.98%     29.27% |          32      3.17%     32.44% |          32      3.17%     35.62% |          32      3.17%     38.79% |          32      3.17%     41.96% |          33      3.27%     45.24% |          38      3.77%     49.01% |          38      3.77%     52.78% |          38      3.77%     56.55% |          38      3.77%     60.32% |          32      3.17%     63.49% |          32      3.17%     66.67% |          32      3.17%     69.84% |          32      3.17%     73.02% |          32      3.17%     76.19% |          32      3.17%     79.37% |          32      3.17%     82.54% |          32      3.17%     85.71% |          32      3.17%     88.89% |          28      2.78%     91.67% |          28      2.78%     94.44% |          28      2.78%     97.22% |          28      2.78%    100.00% # Number of accesses per bank
system.dev_mem_ctrls.memBankCount::total         1008                       # Number of accesses per bank
system.mem_ctrls.bytes_read::ruby.dir_cntrl0       200192                       # Number of bytes read from this memory
system.mem_ctrls.bytes_read::total             200192                       # Number of bytes read from this memory
system.mem_ctrls.bytes_written::ruby.dir_cntrl0        73216                       # Number of bytes written to this memory
system.mem_ctrls.bytes_written::total           73216                       # Number of bytes written to this memory
system.mem_ctrls.num_reads::ruby.dir_cntrl0         1564                       # Number of read requests responded to by this memory
system.mem_ctrls.num_reads::total                1564                       # Number of read requests responded to by this memory
system.mem_ctrls.num_writes::ruby.dir_cntrl0          572                       # Number of write requests responded to by this memory
system.mem_ctrls.num_writes::total                572                       # Number of write requests responded to by this memory
system.mem_ctrls.bw_read::ruby.dir_cntrl0     22458442                       # Total read bandwidth from this memory (bytes/s)
system.mem_ctrls.bw_read::total              22458442                       # Total read bandwidth from this memory (bytes/s)
system.mem_ctrls.bw_write::ruby.dir_cntrl0      8213701                       # Write bandwidth from this memory (bytes/s)
system.mem_ctrls.bw_write::total              8213701                       # Write bandwidth from this memory (bytes/s)
system.mem_ctrls.bw_total::ruby.dir_cntrl0     30672143                       # Total bandwidth to/from this memory (bytes/s)
system.mem_ctrls.bw_total::total             30672143                       # Total bandwidth to/from this memory (bytes/s)
system.mem_ctrls.memReq                          2136                       # Total number of memory requests
system.mem_ctrls.memRead                         1564                       # Number of memory reads
system.mem_ctrls.memWrite                         572                       # Number of memory writes
system.mem_ctrls.memRefresh                      9194                       # Number of memory refreshes
system.mem_ctrls.memWaitCycles                  28994                       # Delay stalled at the head of the bank queue
system.mem_ctrls.memInputQ                       6955                       # Delay in the input queue
system.mem_ctrls.memBankQ                       33421                       # Delay behind the head of the bank queue
system.mem_ctrls.totalStalls                    69370                       # Total number of stall cycles
system.mem_ctrls.stallsPerReq               32.476592                       # Expected number of stall cycles per request
system.mem_ctrls.memBankBusy                     4869                       # memory stalls due to busy bank
system.mem_ctrls.memBusBusy                      8134                       # memory stalls due to busy bus
system.mem_ctrls.memReadWriteBusy                 590                       # memory stalls due to read write turnaround
system.mem_ctrls.memDataBusBusy                   275                       # memory stalls due to read read turnaround
system.mem_ctrls.memArbWait                      6990                       # memory stalls due to arbitration
system.mem_ctrls.memNotOld                       8136                       # memory stalls due to anti starvation
system.mem_ctrls.memBankCount            |          63      2.95%      2.95% |          67      3.14%      6.09% |          60      2.81%      8.90% |          66      3.09%     11.99% |          61      2.86%     14.84% |          60      2.81%     17.65% |          57      2.67%     20.32% |          61      2.86%     23.17% |          62      2.90%     26.08% |          61      2.86%     28.93% |          69      3.23%     32.16% |          62      2.90%     35.07% |          59      2.76%     37.83% |          60      2.81%     40.64% |          65      3.04%     43.68% |          64      3.00%     46.68% |          72      3.37%     50.05% |          72      3.37%     53.42% |          69      3.23%     56.65% |          74      3.46%     60.11% |          63      2.95%     63.06% |          64      3.00%     66.06% |          71      3.32%     69.38% |          75      3.51%     72.89% |          83      3.89%     76.78% |          76      3.56%     80.34% |          74      3.46%     83.80% |          71      3.32%     87.13% |          68      3.18%     90.31% |          68      3.18%     93.49% |          72      3.37%     96.86% |          67      3.14%    100.00% # Number of accesses per bank
system.mem_ctrls.memBankCount::total             2136                       # Number of accesses per bank
system.ruby_clk_domain.clock                      500                       # Clock period in ticks
system.ruby.phys_mem.bytes_read::cpu.inst     53171984                       # Number of bytes read from this memory
system.ruby.phys_mem.bytes_read::cpu.data      7953291                       # Number of bytes read from this memory
system.ruby.phys_mem.bytes_read::gpu.ce         73052                       # Number of bytes read from this memory
system.ruby.phys_mem.bytes_read::gpu.shader_cores0.data        35072                       # Number of bytes read from this memory
system.ruby.phys_mem.bytes_read::gpu.shader_cores0.inst          192                       # Number of bytes read from this memory
system.ruby.phys_mem.bytes_read::gpu.shader_cores1.data        35456                       # Number of bytes read from this memory
system.ruby.phys_mem.bytes_read::gpu.shader_cores1.inst          208                       # Number of bytes read from this memory
system.ruby.phys_mem.bytes_read::gpu.shader_cores2.data        35072                       # Number of bytes read from this memory
system.ruby.phys_mem.bytes_read::gpu.shader_cores2.inst          192                       # Number of bytes read from this memory
system.ruby.phys_mem.bytes_read::gpu.shader_cores3.data        34816                       # Number of bytes read from this memory
system.ruby.phys_mem.bytes_read::gpu.shader_cores3.inst          192                       # Number of bytes read from this memory
system.ruby.phys_mem.bytes_read::total       61339527                       # Number of bytes read from this memory
system.ruby.phys_mem.bytes_inst_read::cpu.inst     53171984                       # Number of instructions bytes read from this memory
system.ruby.phys_mem.bytes_inst_read::gpu.shader_cores0.inst          192                       # Number of instructions bytes read from this memory
system.ruby.phys_mem.bytes_inst_read::gpu.shader_cores1.inst          208                       # Number of instructions bytes read from this memory
system.ruby.phys_mem.bytes_inst_read::gpu.shader_cores2.inst          192                       # Number of instructions bytes read from this memory
system.ruby.phys_mem.bytes_inst_read::gpu.shader_cores3.inst          192                       # Number of instructions bytes read from this memory
system.ruby.phys_mem.bytes_inst_read::total     53172768                       # Number of instructions bytes read from this memory
system.ruby.phys_mem.bytes_written::cpu.data      4954819                       # Number of bytes written to this memory
system.ruby.phys_mem.bytes_written::gpu.ce        73052                       # Number of bytes written to this memory
system.ruby.phys_mem.bytes_written::gpu.shader_cores0.data        12544                       # Number of bytes written to this memory
system.ruby.phys_mem.bytes_written::gpu.shader_cores1.data        12672                       # Number of bytes written to this memory
system.ruby.phys_mem.bytes_written::gpu.shader_cores2.data        12544                       # Number of bytes written to this memory
system.ruby.phys_mem.bytes_written::gpu.shader_cores3.data        12544                       # Number of bytes written to this memory
system.ruby.phys_mem.bytes_written::total      5078175                       # Number of bytes written to this memory
system.ruby.phys_mem.num_reads::cpu.inst      6646498                       # Number of read requests responded to by this memory
system.ruby.phys_mem.num_reads::cpu.data      1295108                       # Number of read requests responded to by this memory
system.ruby.phys_mem.num_reads::gpu.ce            577                       # Number of read requests responded to by this memory
system.ruby.phys_mem.num_reads::gpu.shader_cores0.data          428                       # Number of read requests responded to by this memory
system.ruby.phys_mem.num_reads::gpu.shader_cores0.inst           12                       # Number of read requests responded to by this memory
system.ruby.phys_mem.num_reads::gpu.shader_cores1.data          421                       # Number of read requests responded to by this memory
system.ruby.phys_mem.num_reads::gpu.shader_cores1.inst           13                       # Number of read requests responded to by this memory
system.ruby.phys_mem.num_reads::gpu.shader_cores2.data          428                       # Number of read requests responded to by this memory
system.ruby.phys_mem.num_reads::gpu.shader_cores2.inst           12                       # Number of read requests responded to by this memory
system.ruby.phys_mem.num_reads::gpu.shader_cores3.data          416                       # Number of read requests responded to by this memory
system.ruby.phys_mem.num_reads::gpu.shader_cores3.inst           12                       # Number of read requests responded to by this memory
system.ruby.phys_mem.num_reads::total         7943925                       # Number of read requests responded to by this memory
system.ruby.phys_mem.num_writes::cpu.data       785970                       # Number of write requests responded to by this memory
system.ruby.phys_mem.num_writes::gpu.ce           576                       # Number of write requests responded to by this memory
system.ruby.phys_mem.num_writes::gpu.shader_cores0.data          308                       # Number of write requests responded to by this memory
system.ruby.phys_mem.num_writes::gpu.shader_cores1.data          322                       # Number of write requests responded to by this memory
system.ruby.phys_mem.num_writes::gpu.shader_cores2.data          308                       # Number of write requests responded to by this memory
system.ruby.phys_mem.num_writes::gpu.shader_cores3.data          320                       # Number of write requests responded to by this memory
system.ruby.phys_mem.num_writes::total         787804                       # Number of write requests responded to by this memory
system.ruby.phys_mem.bw_read::cpu.inst     5965073035                       # Total read bandwidth from this memory (bytes/s)
system.ruby.phys_mem.bw_read::cpu.data      892236063                       # Total read bandwidth from this memory (bytes/s)
system.ruby.phys_mem.bw_read::gpu.ce          8195303                       # Total read bandwidth from this memory (bytes/s)
system.ruby.phys_mem.bw_read::gpu.shader_cores0.data      3934535                       # Total read bandwidth from this memory (bytes/s)
system.ruby.phys_mem.bw_read::gpu.shader_cores0.inst        21539                       # Total read bandwidth from this memory (bytes/s)
system.ruby.phys_mem.bw_read::gpu.shader_cores1.data      3977614                       # Total read bandwidth from this memory (bytes/s)
system.ruby.phys_mem.bw_read::gpu.shader_cores1.inst        23334                       # Total read bandwidth from this memory (bytes/s)
system.ruby.phys_mem.bw_read::gpu.shader_cores2.data      3934535                       # Total read bandwidth from this memory (bytes/s)
system.ruby.phys_mem.bw_read::gpu.shader_cores2.inst        21539                       # Total read bandwidth from this memory (bytes/s)
system.ruby.phys_mem.bw_read::gpu.shader_cores3.data      3905816                       # Total read bandwidth from this memory (bytes/s)
system.ruby.phys_mem.bw_read::gpu.shader_cores3.inst        21539                       # Total read bandwidth from this memory (bytes/s)
system.ruby.phys_mem.bw_read::total        6881344854                       # Total read bandwidth from this memory (bytes/s)
system.ruby.phys_mem.bw_inst_read::cpu.inst   5965073035                       # Instruction read bandwidth from this memory (bytes/s)
system.ruby.phys_mem.bw_inst_read::gpu.shader_cores0.inst        21539                       # Instruction read bandwidth from this memory (bytes/s)
system.ruby.phys_mem.bw_inst_read::gpu.shader_cores1.inst        23334                       # Instruction read bandwidth from this memory (bytes/s)
system.ruby.phys_mem.bw_inst_read::gpu.shader_cores2.inst        21539                       # Instruction read bandwidth from this memory (bytes/s)
system.ruby.phys_mem.bw_inst_read::gpu.shader_cores3.inst        21539                       # Instruction read bandwidth from this memory (bytes/s)
system.ruby.phys_mem.bw_inst_read::total   5965160988                       # Instruction read bandwidth from this memory (bytes/s)
system.ruby.phys_mem.bw_write::cpu.data     555853948                       # Write bandwidth from this memory (bytes/s)
system.ruby.phys_mem.bw_write::gpu.ce         8195303                       # Write bandwidth from this memory (bytes/s)
system.ruby.phys_mem.bw_write::gpu.shader_cores0.data      1407243                       # Write bandwidth from this memory (bytes/s)
system.ruby.phys_mem.bw_write::gpu.shader_cores1.data      1421602                       # Write bandwidth from this memory (bytes/s)
system.ruby.phys_mem.bw_write::gpu.shader_cores2.data      1407243                       # Write bandwidth from this memory (bytes/s)
system.ruby.phys_mem.bw_write::gpu.shader_cores3.data      1407243                       # Write bandwidth from this memory (bytes/s)
system.ruby.phys_mem.bw_write::total        569692580                       # Write bandwidth from this memory (bytes/s)
system.ruby.phys_mem.bw_total::cpu.inst    5965073035                       # Total bandwidth to/from this memory (bytes/s)
system.ruby.phys_mem.bw_total::cpu.data    1448090011                       # Total bandwidth to/from this memory (bytes/s)
system.ruby.phys_mem.bw_total::gpu.ce        16390606                       # Total bandwidth to/from this memory (bytes/s)
system.ruby.phys_mem.bw_total::gpu.shader_cores0.data      5341778                       # Total bandwidth to/from this memory (bytes/s)
system.ruby.phys_mem.bw_total::gpu.shader_cores0.inst        21539                       # Total bandwidth to/from this memory (bytes/s)
system.ruby.phys_mem.bw_total::gpu.shader_cores1.data      5399216                       # Total bandwidth to/from this memory (bytes/s)
system.ruby.phys_mem.bw_total::gpu.shader_cores1.inst        23334                       # Total bandwidth to/from this memory (bytes/s)
system.ruby.phys_mem.bw_total::gpu.shader_cores2.data      5341778                       # Total bandwidth to/from this memory (bytes/s)
system.ruby.phys_mem.bw_total::gpu.shader_cores2.inst        21539                       # Total bandwidth to/from this memory (bytes/s)
system.ruby.phys_mem.bw_total::gpu.shader_cores3.data      5313058                       # Total bandwidth to/from this memory (bytes/s)
system.ruby.phys_mem.bw_total::gpu.shader_cores3.inst        21539                       # Total bandwidth to/from this memory (bytes/s)
system.ruby.phys_mem.bw_total::total       7451037435                       # Total bandwidth to/from this memory (bytes/s)
system.cpu_voltage_domain.voltage                   1                       # Voltage in Volts
system.cpu_clk_domain.clock                       500                       # Clock period in ticks
system.cpu.apic_clk_domain.clock                 8000                       # Clock period in ticks
system.cpu.workload.num_syscalls                   44                       # Number of system calls
system.cpu.numCycles                         17827773                       # number of cpu cycles simulated
system.cpu.numWorkItemsStarted                      1                       # number of work items this cpu started
system.cpu.numWorkItemsCompleted                    1                       # number of work items this cpu completed
system.cpu.committedInsts                     4946452                       # Number of instructions committed
system.cpu.committedOps                       9450648                       # Number of ops (including micro ops) committed
system.cpu.num_int_alu_accesses               9303271                       # Number of integer alu accesses
system.cpu.num_fp_alu_accesses                 212669                       # Number of float alu accesses
system.cpu.num_func_calls                      196214                       # number of times a function call or return occured
system.cpu.num_conditional_control_insts       810145                       # number of instructions that are conditional controls
system.cpu.num_int_insts                      9303271                       # number of integer instructions
system.cpu.num_fp_insts                        212669                       # number of float instructions
system.cpu.num_int_register_reads            17826880                       # number of times the integer registers were read
system.cpu.num_int_register_writes            7438219                       # number of times the integer registers were written
system.cpu.num_fp_register_reads               283204                       # number of times the floating registers were read
system.cpu.num_fp_register_writes              145430                       # number of times the floating registers were written
system.cpu.num_cc_register_reads              5491301                       # number of times the CC registers were read
system.cpu.num_cc_register_writes             3235533                       # number of times the CC registers were written
system.cpu.num_mem_refs                       2081078                       # number of memory refs
system.cpu.num_load_insts                     1295108                       # Number of load instructions
system.cpu.num_store_insts                     785970                       # Number of store instructions
system.cpu.num_idle_cycles               82265.179991                       # Number of idle cycles
system.cpu.num_busy_cycles               17745507.820009                       # Number of busy cycles
system.cpu.not_idle_fraction                 0.995386                       # Percentage of non-idle cycles
system.cpu.idle_fraction                     0.004614                       # Percentage of idle cycles
system.cpu.Branches                           1085857                       # Number of branches fetched
system.cpu.op_class::No_OpClass                 34951      0.37%      0.37% # Class of executed instruction
system.cpu.op_class::IntAlu                   7182276     76.00%     76.37% # Class of executed instruction
system.cpu.op_class::IntMult                    20875      0.22%     76.59% # Class of executed instruction
system.cpu.op_class::IntDiv                       370      0.00%     76.59% # Class of executed instruction
system.cpu.op_class::FloatAdd                  131098      1.39%     77.98% # Class of executed instruction
system.cpu.op_class::FloatCmp                       0      0.00%     77.98% # Class of executed instruction
system.cpu.op_class::FloatCvt                       0      0.00%     77.98% # Class of executed instruction
system.cpu.op_class::FloatMult                      0      0.00%     77.98% # Class of executed instruction
system.cpu.op_class::FloatDiv                       0      0.00%     77.98% # Class of executed instruction
system.cpu.op_class::FloatSqrt                      0      0.00%     77.98% # Class of executed instruction
system.cpu.op_class::SimdAdd                        0      0.00%     77.98% # Class of executed instruction
system.cpu.op_class::SimdAddAcc                     0      0.00%     77.98% # Class of executed instruction
system.cpu.op_class::SimdAlu                        0      0.00%     77.98% # Class of executed instruction
system.cpu.op_class::SimdCmp                        0      0.00%     77.98% # Class of executed instruction
system.cpu.op_class::SimdCvt                        0      0.00%     77.98% # Class of executed instruction
system.cpu.op_class::SimdMisc                       0      0.00%     77.98% # Class of executed instruction
system.cpu.op_class::SimdMult                       0      0.00%     77.98% # Class of executed instruction
system.cpu.op_class::SimdMultAcc                    0      0.00%     77.98% # Class of executed instruction
system.cpu.op_class::SimdShift                      0      0.00%     77.98% # Class of executed instruction
system.cpu.op_class::SimdShiftAcc                   0      0.00%     77.98% # Class of executed instruction
system.cpu.op_class::SimdSqrt                       0      0.00%     77.98% # Class of executed instruction
system.cpu.op_class::SimdFloatAdd                   0      0.00%     77.98% # Class of executed instruction
system.cpu.op_class::SimdFloatAlu                   0      0.00%     77.98% # Class of executed instruction
system.cpu.op_class::SimdFloatCmp                   0      0.00%     77.98% # Class of executed instruction
system.cpu.op_class::SimdFloatCvt                   0      0.00%     77.98% # Class of executed instruction
system.cpu.op_class::SimdFloatDiv                   0      0.00%     77.98% # Class of executed instruction
system.cpu.op_class::SimdFloatMisc                  0      0.00%     77.98% # Class of executed instruction
system.cpu.op_class::SimdFloatMult                  0      0.00%     77.98% # Class of executed instruction
system.cpu.op_class::SimdFloatMultAcc               0      0.00%     77.98% # Class of executed instruction
system.cpu.op_class::SimdFloatSqrt                  0      0.00%     77.98% # Class of executed instruction
system.cpu.op_class::MemRead                  1295108     13.70%     91.68% # Class of executed instruction
system.cpu.op_class::MemWrite                  785970      8.32%    100.00% # Class of executed instruction
system.cpu.op_class::IprAccess                      0      0.00%    100.00% # Class of executed instruction
system.cpu.op_class::InstPrefetch                   0      0.00%    100.00% # Class of executed instruction
system.cpu.op_class::total                    9450648                       # Class of executed instruction
system.gpu.clk_domain.voltage_domain.voltage            1                       # Voltage in Volts
system.gpu.clk_domain.clock                      1429                       # Clock period in ticks
system.gpu.dram_wrapper.clk_domain.clock          541                       # Clock period in ticks
system.gpu.icnt_wrapper.clk_domain.clock         2858                       # Clock period in ticks
system.ruby.delayHist::bucket_size                  4                       # delay histogram for all message
system.ruby.delayHist::max_bucket                  39                       # delay histogram for all message
system.ruby.delayHist::samples                   1812                       # delay histogram for all message
system.ruby.delayHist::mean                  0.818985                       # delay histogram for all message
system.ruby.delayHist::stdev                 3.418260                       # delay histogram for all message
system.ruby.delayHist                    |        1684     92.94%     92.94% |          11      0.61%     93.54% |          77      4.25%     97.79% |           2      0.11%     97.90% |          20      1.10%     99.01% |           2      0.11%     99.12% |          13      0.72%     99.83% |           1      0.06%     99.89% |           2      0.11%    100.00% |           0      0.00%    100.00% # delay histogram for all message
system.ruby.delayHist::total                     1812                       # delay histogram for all message
system.ruby.outstanding_req_hist::bucket_size            8                      
system.ruby.outstanding_req_hist::max_bucket           79                      
system.ruby.outstanding_req_hist::samples      8731729                      
system.ruby.outstanding_req_hist::mean       1.012389                      
system.ruby.outstanding_req_hist::gmean      1.001382                      
system.ruby.outstanding_req_hist::stdev      0.690568                      
system.ruby.outstanding_req_hist         |     8728357     99.96%     99.96% |         497      0.01%     99.97% |         518      0.01%     99.97% |         689      0.01%     99.98% |         684      0.01%     99.99% |         420      0.00%     99.99% |         190      0.00%    100.00% |         145      0.00%    100.00% |         229      0.00%    100.00% |           0      0.00%    100.00%
system.ruby.outstanding_req_hist::total       8731729                      
system.ruby.latency_hist::bucket_size             256                      
system.ruby.latency_hist::max_bucket             2559                      
system.ruby.latency_hist::samples             8731729                      
system.ruby.latency_hist::mean               1.207397                      
system.ruby.latency_hist::gmean              1.004619                      
system.ruby.latency_hist::stdev             11.847027                      
system.ruby.latency_hist                 |     8729760     99.98%     99.98% |         802      0.01%     99.99% |         585      0.01%     99.99% |         252      0.00%    100.00% |         136      0.00%    100.00% |         134      0.00%    100.00% |          48      0.00%    100.00% |           7      0.00%    100.00% |           5      0.00%    100.00% |           0      0.00%    100.00%
system.ruby.latency_hist::total               8731729                      
system.ruby.hit_latency_hist::bucket_size          256                      
system.ruby.hit_latency_hist::max_bucket         2559                      
system.ruby.hit_latency_hist::samples         8729743                      
system.ruby.hit_latency_hist::mean           1.119026                      
system.ruby.hit_latency_hist::gmean          1.003364                      
system.ruby.hit_latency_hist::stdev          7.757190                      
system.ruby.hit_latency_hist             |     8728324     99.98%     99.98% |         725      0.01%     99.99% |         497      0.01%    100.00% |         148      0.00%    100.00% |          27      0.00%    100.00% |          21      0.00%    100.00% |           1      0.00%    100.00% |           0      0.00%    100.00% |           0      0.00%    100.00% |           0      0.00%    100.00%
system.ruby.hit_latency_hist::total           8729743                      
system.ruby.miss_latency_hist::bucket_size          256                      
system.ruby.miss_latency_hist::max_bucket         2559                      
system.ruby.miss_latency_hist::samples           1986                      
system.ruby.miss_latency_hist::mean        389.655589                      
system.ruby.miss_latency_hist::gmean       244.137825                      
system.ruby.miss_latency_hist::stdev       449.165321                      
system.ruby.miss_latency_hist            |        1436     72.31%     72.31% |          77      3.88%     76.18% |          88      4.43%     80.61% |         104      5.24%     85.85% |         109      5.49%     91.34% |         113      5.69%     97.03% |          47      2.37%     99.40% |           7      0.35%     99.75% |           5      0.25%    100.00% |           0      0.00%    100.00%
system.ruby.miss_latency_hist::total             1986                      
system.ruby.GPUL2Cache.incomplete_times           120                      
system.ruby.Directory.incomplete_times            434                      
system.gpu.shader_mmu.numPagefaults                 0                       # Number of Pagefaults
system.gpu.shader_mmu.numPagewalks                175                       # Number of Pagewalks
system.gpu.shader_mmu.totalRequests               175                       # Total number of requests
system.gpu.shader_mmu.l2hits                        0                       # Hits in the shared L2
system.gpu.shader_mmu.prefetchHits                  0                       # Number of prefetch hits
system.gpu.shader_mmu.numPrefetches                 0                       # Number of prefetchs
system.gpu.shader_mmu.prefetchFaults                0                       # Number of faults caused by prefetches
system.gpu.shader_mmu.pagefaultLatency::samples            0                       # Latency to complete the pagefault
system.gpu.shader_mmu.pagefaultLatency::mean          nan                       # Latency to complete the pagefault
system.gpu.shader_mmu.pagefaultLatency::gmean          nan                       # Latency to complete the pagefault
system.gpu.shader_mmu.pagefaultLatency::stdev          nan                       # Latency to complete the pagefault
system.gpu.shader_mmu.pagefaultLatency::0            0                       # Latency to complete the pagefault
system.gpu.shader_mmu.pagefaultLatency::1            0                       # Latency to complete the pagefault
system.gpu.shader_mmu.pagefaultLatency::2            0                       # Latency to complete the pagefault
system.gpu.shader_mmu.pagefaultLatency::3            0                       # Latency to complete the pagefault
system.gpu.shader_mmu.pagefaultLatency::4            0                       # Latency to complete the pagefault
system.gpu.shader_mmu.pagefaultLatency::5            0                       # Latency to complete the pagefault
system.gpu.shader_mmu.pagefaultLatency::6            0                       # Latency to complete the pagefault
system.gpu.shader_mmu.pagefaultLatency::7            0                       # Latency to complete the pagefault
system.gpu.shader_mmu.pagefaultLatency::8            0                       # Latency to complete the pagefault
system.gpu.shader_mmu.pagefaultLatency::9            0                       # Latency to complete the pagefault
system.gpu.shader_mmu.pagefaultLatency::10            0                       # Latency to complete the pagefault
system.gpu.shader_mmu.pagefaultLatency::11            0                       # Latency to complete the pagefault
system.gpu.shader_mmu.pagefaultLatency::12            0                       # Latency to complete the pagefault
system.gpu.shader_mmu.pagefaultLatency::13            0                       # Latency to complete the pagefault
system.gpu.shader_mmu.pagefaultLatency::14            0                       # Latency to complete the pagefault
system.gpu.shader_mmu.pagefaultLatency::15            0                       # Latency to complete the pagefault
system.gpu.shader_mmu.pagefaultLatency::16            0                       # Latency to complete the pagefault
system.gpu.shader_mmu.pagefaultLatency::17            0                       # Latency to complete the pagefault
system.gpu.shader_mmu.pagefaultLatency::18            0                       # Latency to complete the pagefault
system.gpu.shader_mmu.pagefaultLatency::19            0                       # Latency to complete the pagefault
system.gpu.shader_mmu.pagefaultLatency::20            0                       # Latency to complete the pagefault
system.gpu.shader_mmu.pagefaultLatency::21            0                       # Latency to complete the pagefault
system.gpu.shader_mmu.pagefaultLatency::22            0                       # Latency to complete the pagefault
system.gpu.shader_mmu.pagefaultLatency::23            0                       # Latency to complete the pagefault
system.gpu.shader_mmu.pagefaultLatency::24            0                       # Latency to complete the pagefault
system.gpu.shader_mmu.pagefaultLatency::25            0                       # Latency to complete the pagefault
system.gpu.shader_mmu.pagefaultLatency::26            0                       # Latency to complete the pagefault
system.gpu.shader_mmu.pagefaultLatency::27            0                       # Latency to complete the pagefault
system.gpu.shader_mmu.pagefaultLatency::28            0                       # Latency to complete the pagefault
system.gpu.shader_mmu.pagefaultLatency::29            0                       # Latency to complete the pagefault
system.gpu.shader_mmu.pagefaultLatency::30            0                       # Latency to complete the pagefault
system.gpu.shader_mmu.pagefaultLatency::31            0                       # Latency to complete the pagefault
system.gpu.shader_mmu.pagefaultLatency::total            0                       # Latency to complete the pagefault
system.gpu.shader_mmu.concurrentWalks::samples          175                       # Number of outstanding walks
system.gpu.shader_mmu.concurrentWalks::mean            0                       # Number of outstanding walks
system.gpu.shader_mmu.concurrentWalks::gmean            0                       # Number of outstanding walks
system.gpu.shader_mmu.concurrentWalks::stdev            0                       # Number of outstanding walks
system.gpu.shader_mmu.concurrentWalks::0          175    100.00%    100.00% # Number of outstanding walks
system.gpu.shader_mmu.concurrentWalks::1            0      0.00%    100.00% # Number of outstanding walks
system.gpu.shader_mmu.concurrentWalks::2            0      0.00%    100.00% # Number of outstanding walks
system.gpu.shader_mmu.concurrentWalks::3            0      0.00%    100.00% # Number of outstanding walks
system.gpu.shader_mmu.concurrentWalks::4            0      0.00%    100.00% # Number of outstanding walks
system.gpu.shader_mmu.concurrentWalks::5            0      0.00%    100.00% # Number of outstanding walks
system.gpu.shader_mmu.concurrentWalks::6            0      0.00%    100.00% # Number of outstanding walks
system.gpu.shader_mmu.concurrentWalks::7            0      0.00%    100.00% # Number of outstanding walks
system.gpu.shader_mmu.concurrentWalks::8            0      0.00%    100.00% # Number of outstanding walks
system.gpu.shader_mmu.concurrentWalks::9            0      0.00%    100.00% # Number of outstanding walks
system.gpu.shader_mmu.concurrentWalks::10            0      0.00%    100.00% # Number of outstanding walks
system.gpu.shader_mmu.concurrentWalks::11            0      0.00%    100.00% # Number of outstanding walks
system.gpu.shader_mmu.concurrentWalks::12            0      0.00%    100.00% # Number of outstanding walks
system.gpu.shader_mmu.concurrentWalks::13            0      0.00%    100.00% # Number of outstanding walks
system.gpu.shader_mmu.concurrentWalks::14            0      0.00%    100.00% # Number of outstanding walks
system.gpu.shader_mmu.concurrentWalks::15            0      0.00%    100.00% # Number of outstanding walks
system.gpu.shader_mmu.concurrentWalks::total          175                       # Number of outstanding walks
system.gpu.shader_mmu.pagewalkLatency::samples          175                       # Latency to complete the pagewalk
system.gpu.shader_mmu.pagewalkLatency::mean            0                       # Latency to complete the pagewalk
system.gpu.shader_mmu.pagewalkLatency::gmean            0                       # Latency to complete the pagewalk
system.gpu.shader_mmu.pagewalkLatency::stdev            0                       # Latency to complete the pagewalk
system.gpu.shader_mmu.pagewalkLatency::0          175    100.00%    100.00% # Latency to complete the pagewalk
system.gpu.shader_mmu.pagewalkLatency::1            0      0.00%    100.00% # Latency to complete the pagewalk
system.gpu.shader_mmu.pagewalkLatency::2            0      0.00%    100.00% # Latency to complete the pagewalk
system.gpu.shader_mmu.pagewalkLatency::3            0      0.00%    100.00% # Latency to complete the pagewalk
system.gpu.shader_mmu.pagewalkLatency::4            0      0.00%    100.00% # Latency to complete the pagewalk
system.gpu.shader_mmu.pagewalkLatency::5            0      0.00%    100.00% # Latency to complete the pagewalk
system.gpu.shader_mmu.pagewalkLatency::6            0      0.00%    100.00% # Latency to complete the pagewalk
system.gpu.shader_mmu.pagewalkLatency::7            0      0.00%    100.00% # Latency to complete the pagewalk
system.gpu.shader_mmu.pagewalkLatency::8            0      0.00%    100.00% # Latency to complete the pagewalk
system.gpu.shader_mmu.pagewalkLatency::9            0      0.00%    100.00% # Latency to complete the pagewalk
system.gpu.shader_mmu.pagewalkLatency::10            0      0.00%    100.00% # Latency to complete the pagewalk
system.gpu.shader_mmu.pagewalkLatency::11            0      0.00%    100.00% # Latency to complete the pagewalk
system.gpu.shader_mmu.pagewalkLatency::12            0      0.00%    100.00% # Latency to complete the pagewalk
system.gpu.shader_mmu.pagewalkLatency::13            0      0.00%    100.00% # Latency to complete the pagewalk
system.gpu.shader_mmu.pagewalkLatency::14            0      0.00%    100.00% # Latency to complete the pagewalk
system.gpu.shader_mmu.pagewalkLatency::15            0      0.00%    100.00% # Latency to complete the pagewalk
system.gpu.shader_mmu.pagewalkLatency::16            0      0.00%    100.00% # Latency to complete the pagewalk
system.gpu.shader_mmu.pagewalkLatency::17            0      0.00%    100.00% # Latency to complete the pagewalk
system.gpu.shader_mmu.pagewalkLatency::18            0      0.00%    100.00% # Latency to complete the pagewalk
system.gpu.shader_mmu.pagewalkLatency::19            0      0.00%    100.00% # Latency to complete the pagewalk
system.gpu.shader_mmu.pagewalkLatency::20            0      0.00%    100.00% # Latency to complete the pagewalk
system.gpu.shader_mmu.pagewalkLatency::21            0      0.00%    100.00% # Latency to complete the pagewalk
system.gpu.shader_mmu.pagewalkLatency::22            0      0.00%    100.00% # Latency to complete the pagewalk
system.gpu.shader_mmu.pagewalkLatency::23            0      0.00%    100.00% # Latency to complete the pagewalk
system.gpu.shader_mmu.pagewalkLatency::24            0      0.00%    100.00% # Latency to complete the pagewalk
system.gpu.shader_mmu.pagewalkLatency::25            0      0.00%    100.00% # Latency to complete the pagewalk
system.gpu.shader_mmu.pagewalkLatency::26            0      0.00%    100.00% # Latency to complete the pagewalk
system.gpu.shader_mmu.pagewalkLatency::27            0      0.00%    100.00% # Latency to complete the pagewalk
system.gpu.shader_mmu.pagewalkLatency::28            0      0.00%    100.00% # Latency to complete the pagewalk
system.gpu.shader_mmu.pagewalkLatency::29            0      0.00%    100.00% # Latency to complete the pagewalk
system.gpu.shader_mmu.pagewalkLatency::30            0      0.00%    100.00% # Latency to complete the pagewalk
system.gpu.shader_mmu.pagewalkLatency::31            0      0.00%    100.00% # Latency to complete the pagewalk
system.gpu.shader_mmu.pagewalkLatency::total          175                       # Latency to complete the pagewalk
system.gpu.kernels_started                          2                       # Number of kernels started
system.gpu.kernels_completed                        2                       # Number of kernels completed
system.gpu.ce.device_dtb.hits                       0                       # Number of hits in this TLB
system.gpu.ce.device_dtb.misses                     0                       # Number of misses in this TLB
system.gpu.ce.device_dtb.hitRate                  nan                       # Hit rate for this TLB
system.gpu.ce.host_dtb.hits                       403                       # Number of hits in this TLB
system.gpu.ce.host_dtb.misses                     175                       # Number of misses in this TLB
system.gpu.ce.host_dtb.hitRate               0.697232                       # Hit rate for this TLB
system.gpu.ce.numOperations                         8                       # Number of copy/memset operations
system.gpu.ce.opBytesRead                       73052                       # Number of copy bytes read
system.gpu.ce.opBytesWritten                    73052                       # Number of copy/memset bytes written
system.gpu.ce.opTimeTicks                    45073010                       # Total time spent in copy/memset operations
system.gpu.shader_cores0.itb.hits                   0                       # Number of hits in this TLB
system.gpu.shader_cores0.itb.misses                 0                       # Number of misses in this TLB
system.gpu.shader_cores0.itb.hitRate              nan                       # Hit rate for this TLB
system.gpu.shader_cores0.local_loads                0                       # Number of loads from local space
system.gpu.shader_cores0.local_stores               0                       # Number of stores to local space
system.gpu.shader_cores0.shared_loads            5056                       # Number of loads from shared space
system.gpu.shader_cores0.shared_stores           3072                       # Number of stores to shared space
system.gpu.shader_cores0.param_kernel_loads         7296                       # Number of loads from kernel parameter space
system.gpu.shader_cores0.param_local_loads            0                       # Number of loads from local parameter space
system.gpu.shader_cores0.param_local_stores            0                       # Number of stores to local parameter space
system.gpu.shader_cores0.const_loads                0                       # Number of loads from constant space
system.gpu.shader_cores0.tex_loads                  0                       # Number of loads from texture space
system.gpu.shader_cores0.global_loads            8256                       # Number of loads from global space
system.gpu.shader_cores0.global_stores           3136                       # Number of stores to global space
system.gpu.shader_cores0.surf_loads                 0                       # Number of loads from surface space
system.gpu.shader_cores0.generic_loads              0                       # Number of loads from generic spaces (global, shared, local)
system.gpu.shader_cores0.generic_stores             0                       # Number of stores to generic spaces (global, shared, local)
system.gpu.shader_cores0.inst_cache_requests           12                       # Number of instruction cache requests sent
system.gpu.shader_cores0.inst_cache_retries            0                       # Number of instruction cache retries
system.gpu.shader_cores0.inst_counts::0             0                       # Inst counts: 1: ALU, 2: MAD, 3: CTRL, 4: SFU, 5: MEM, 6: TEX, 7: NOP
system.gpu.shader_cores0.inst_counts::1        130176                       # Inst counts: 1: ALU, 2: MAD, 3: CTRL, 4: SFU, 5: MEM, 6: TEX, 7: NOP
system.gpu.shader_cores0.inst_counts::2          2048                       # Inst counts: 1: ALU, 2: MAD, 3: CTRL, 4: SFU, 5: MEM, 6: TEX, 7: NOP
system.gpu.shader_cores0.inst_counts::3         20416                       # Inst counts: 1: ALU, 2: MAD, 3: CTRL, 4: SFU, 5: MEM, 6: TEX, 7: NOP
system.gpu.shader_cores0.inst_counts::4          6144                       # Inst counts: 1: ALU, 2: MAD, 3: CTRL, 4: SFU, 5: MEM, 6: TEX, 7: NOP
system.gpu.shader_cores0.inst_counts::5         26816                       # Inst counts: 1: ALU, 2: MAD, 3: CTRL, 4: SFU, 5: MEM, 6: TEX, 7: NOP
system.gpu.shader_cores0.inst_counts::6             0                       # Inst counts: 1: ALU, 2: MAD, 3: CTRL, 4: SFU, 5: MEM, 6: TEX, 7: NOP
system.gpu.shader_cores0.inst_counts::7             0                       # Inst counts: 1: ALU, 2: MAD, 3: CTRL, 4: SFU, 5: MEM, 6: TEX, 7: NOP
system.gpu.shader_cores0.activeCycles            9042                       # Number of cycles this shader was executing a CTA
system.gpu.shader_cores0.notStalledCycles         4907                       # Number of cycles this shader was actually executing at least one instance
system.gpu.shader_cores0.instInstances         185600                       # Total instructions executed by all PEs in the core
system.gpu.shader_cores0.instPerCycle       20.526432                       # Instruction instances per cycle
system.gpu.shader_cores0.kernels_completed            2                       # Number of kernels completed
system.gpu.shader_cores0.lsq.data_tlb.hits            0                       # Number of hits in this TLB
system.gpu.shader_cores0.lsq.data_tlb.misses            0                       # Number of misses in this TLB
system.gpu.shader_cores0.lsq.data_tlb.hitRate          nan                       # Hit rate for this TLB
system.gpu.shader_cores0.lsq.warpInstBufActive::samples     11980736                       # Histogram of number of active warp inst buffers at a given time
system.gpu.shader_cores0.lsq.warpInstBufActive::mean    15.801885                       # Histogram of number of active warp inst buffers at a given time
system.gpu.shader_cores0.lsq.warpInstBufActive::gmean          nan                       # Histogram of number of active warp inst buffers at a given time
system.gpu.shader_cores0.lsq.warpInstBufActive::stdev    17.351105                       # Histogram of number of active warp inst buffers at a given time
system.gpu.shader_cores0.lsq.warpInstBufActive::0      3759699     31.38%     31.38% # Histogram of number of active warp inst buffers at a given time
system.gpu.shader_cores0.lsq.warpInstBufActive::1       853113      7.12%     38.50% # Histogram of number of active warp inst buffers at a given time
system.gpu.shader_cores0.lsq.warpInstBufActive::2       534446      4.46%     42.96% # Histogram of number of active warp inst buffers at a given time
system.gpu.shader_cores0.lsq.warpInstBufActive::3       157190      1.31%     44.27% # Histogram of number of active warp inst buffers at a given time
system.gpu.shader_cores0.lsq.warpInstBufActive::4        87169      0.73%     45.00% # Histogram of number of active warp inst buffers at a given time
system.gpu.shader_cores0.lsq.warpInstBufActive::5       170051      1.42%     46.42% # Histogram of number of active warp inst buffers at a given time
system.gpu.shader_cores0.lsq.warpInstBufActive::6       150045      1.25%     47.67% # Histogram of number of active warp inst buffers at a given time
system.gpu.shader_cores0.lsq.warpInstBufActive::7        71450      0.60%     48.27% # Histogram of number of active warp inst buffers at a given time
system.gpu.shader_cores0.lsq.warpInstBufActive::8       147187      1.23%     49.50% # Histogram of number of active warp inst buffers at a given time
system.gpu.shader_cores0.lsq.warpInstBufActive::9        61447      0.51%     50.01% # Histogram of number of active warp inst buffers at a given time
system.gpu.shader_cores0.lsq.warpInstBufActive::10        31438      0.26%     50.27% # Histogram of number of active warp inst buffers at a given time
system.gpu.shader_cores0.lsq.warpInstBufActive::11       137184      1.15%     51.42% # Histogram of number of active warp inst buffers at a given time
system.gpu.shader_cores0.lsq.warpInstBufActive::12       131468      1.10%     52.52% # Histogram of number of active warp inst buffers at a given time
system.gpu.shader_cores0.lsq.warpInstBufActive::13        58589      0.49%     53.01% # Histogram of number of active warp inst buffers at a given time
system.gpu.shader_cores0.lsq.warpInstBufActive::14        52873      0.44%     53.45% # Histogram of number of active warp inst buffers at a given time
system.gpu.shader_cores0.lsq.warpInstBufActive::15       150045      1.25%     54.70% # Histogram of number of active warp inst buffers at a given time
system.gpu.shader_cores0.lsq.warpInstBufActive::16       338673      2.83%     57.53% # Histogram of number of active warp inst buffers at a given time
system.gpu.shader_cores0.lsq.warpInstBufActive::17       172909      1.44%     58.97% # Histogram of number of active warp inst buffers at a given time
system.gpu.shader_cores0.lsq.warpInstBufActive::18       134326      1.12%     60.09% # Histogram of number of active warp inst buffers at a given time
system.gpu.shader_cores0.lsq.warpInstBufActive::19       154332      1.29%     61.38% # Histogram of number of active warp inst buffers at a given time
system.gpu.shader_cores0.lsq.warpInstBufActive::20        74308      0.62%     62.00% # Histogram of number of active warp inst buffers at a given time
system.gpu.shader_cores0.lsq.warpInstBufActive::21       195773      1.63%     63.63% # Histogram of number of active warp inst buffers at a given time
system.gpu.shader_cores0.lsq.warpInstBufActive::22        94314      0.79%     64.42% # Histogram of number of active warp inst buffers at a given time
system.gpu.shader_cores0.lsq.warpInstBufActive::23       127181      1.06%     65.48% # Histogram of number of active warp inst buffers at a given time
system.gpu.shader_cores0.lsq.warpInstBufActive::24        68592      0.57%     66.05% # Histogram of number of active warp inst buffers at a given time
system.gpu.shader_cores0.lsq.warpInstBufActive::25       134326      1.12%     67.18% # Histogram of number of active warp inst buffers at a given time
system.gpu.shader_cores0.lsq.warpInstBufActive::26        44299      0.37%     67.55% # Histogram of number of active warp inst buffers at a given time
system.gpu.shader_cores0.lsq.warpInstBufActive::27        64305      0.54%     68.08% # Histogram of number of active warp inst buffers at a given time
system.gpu.shader_cores0.lsq.warpInstBufActive::28       134326      1.12%     69.20% # Histogram of number of active warp inst buffers at a given time
system.gpu.shader_cores0.lsq.warpInstBufActive::29       151474      1.26%     70.47% # Histogram of number of active warp inst buffers at a given time
system.gpu.shader_cores0.lsq.warpInstBufActive::30       362966      3.03%     73.50% # Histogram of number of active warp inst buffers at a given time
system.gpu.shader_cores0.lsq.warpInstBufActive::31       378685      3.16%     76.66% # Histogram of number of active warp inst buffers at a given time
system.gpu.shader_cores0.lsq.warpInstBufActive::32      1331828     11.12%     87.77% # Histogram of number of active warp inst buffers at a given time
system.gpu.shader_cores0.lsq.warpInstBufActive::33        98601      0.82%     88.60% # Histogram of number of active warp inst buffers at a given time
system.gpu.shader_cores0.lsq.warpInstBufActive::34        62876      0.52%     89.12% # Histogram of number of active warp inst buffers at a given time
system.gpu.shader_cores0.lsq.warpInstBufActive::35        74308      0.62%     89.74% # Histogram of number of active warp inst buffers at a given time
system.gpu.shader_cores0.lsq.warpInstBufActive::36        60018      0.50%     90.24% # Histogram of number of active warp inst buffers at a given time
system.gpu.shader_cores0.lsq.warpInstBufActive::37        82882      0.69%     90.94% # Histogram of number of active warp inst buffers at a given time
system.gpu.shader_cores0.lsq.warpInstBufActive::38        37154      0.31%     91.25% # Histogram of number of active warp inst buffers at a given time
system.gpu.shader_cores0.lsq.warpInstBufActive::39        35725      0.30%     91.54% # Histogram of number of active warp inst buffers at a given time
system.gpu.shader_cores0.lsq.warpInstBufActive::40       117178      0.98%     92.52% # Histogram of number of active warp inst buffers at a given time
system.gpu.shader_cores0.lsq.warpInstBufActive::41        42870      0.36%     92.88% # Histogram of number of active warp inst buffers at a given time
system.gpu.shader_cores0.lsq.warpInstBufActive::42        31438      0.26%     93.14% # Histogram of number of active warp inst buffers at a given time
system.gpu.shader_cores0.lsq.warpInstBufActive::43        55731      0.47%     93.61% # Histogram of number of active warp inst buffers at a given time
system.gpu.shader_cores0.lsq.warpInstBufActive::44        75737      0.63%     94.24% # Histogram of number of active warp inst buffers at a given time
system.gpu.shader_cores0.lsq.warpInstBufActive::45        34296      0.29%     94.53% # Histogram of number of active warp inst buffers at a given time
system.gpu.shader_cores0.lsq.warpInstBufActive::46        32867      0.27%     94.80% # Histogram of number of active warp inst buffers at a given time
system.gpu.shader_cores0.lsq.warpInstBufActive::47        25722      0.21%     95.01% # Histogram of number of active warp inst buffers at a given time
system.gpu.shader_cores0.lsq.warpInstBufActive::48         7145      0.06%     95.07% # Histogram of number of active warp inst buffers at a given time
system.gpu.shader_cores0.lsq.warpInstBufActive::49        21435      0.18%     95.25% # Histogram of number of active warp inst buffers at a given time
system.gpu.shader_cores0.lsq.warpInstBufActive::50        10003      0.08%     95.34% # Histogram of number of active warp inst buffers at a given time
system.gpu.shader_cores0.lsq.warpInstBufActive::51        17148      0.14%     95.48% # Histogram of number of active warp inst buffers at a given time
system.gpu.shader_cores0.lsq.warpInstBufActive::52        10003      0.08%     95.56% # Histogram of number of active warp inst buffers at a given time
system.gpu.shader_cores0.lsq.warpInstBufActive::53        11432      0.10%     95.66% # Histogram of number of active warp inst buffers at a given time
system.gpu.shader_cores0.lsq.warpInstBufActive::54         2858      0.02%     95.68% # Histogram of number of active warp inst buffers at a given time
system.gpu.shader_cores0.lsq.warpInstBufActive::55         8574      0.07%     95.75% # Histogram of number of active warp inst buffers at a given time
system.gpu.shader_cores0.lsq.warpInstBufActive::56        21435      0.18%     95.93% # Histogram of number of active warp inst buffers at a given time
system.gpu.shader_cores0.lsq.warpInstBufActive::57        12861      0.11%     96.04% # Histogram of number of active warp inst buffers at a given time
system.gpu.shader_cores0.lsq.warpInstBufActive::58        22864      0.19%     96.23% # Histogram of number of active warp inst buffers at a given time
system.gpu.shader_cores0.lsq.warpInstBufActive::59        20006      0.17%     96.40% # Histogram of number of active warp inst buffers at a given time
system.gpu.shader_cores0.lsq.warpInstBufActive::60        85740      0.72%     97.11% # Histogram of number of active warp inst buffers at a given time
system.gpu.shader_cores0.lsq.warpInstBufActive::61        21435      0.18%     97.29% # Histogram of number of active warp inst buffers at a given time
system.gpu.shader_cores0.lsq.warpInstBufActive::62        48586      0.41%     97.70% # Histogram of number of active warp inst buffers at a given time
system.gpu.shader_cores0.lsq.warpInstBufActive::63        15719      0.13%     97.83% # Histogram of number of active warp inst buffers at a given time
system.gpu.shader_cores0.lsq.warpInstBufActive::64       260078      2.17%    100.00% # Histogram of number of active warp inst buffers at a given time
system.gpu.shader_cores0.lsq.warpInstBufActive::total     11980736                       # Histogram of number of active warp inst buffers at a given time
system.gpu.shader_cores0.lsq.cacheAccesses     0.014987                       # Average number of concurrent outstanding cache accesses
system.gpu.shader_cores0.lsq.writebackBlockedCycles          139                       # Number of cycles blocked for core writeback stage
system.gpu.shader_cores0.lsq.mshrHitQueued          322                       # Number of hits on blocked lines in MSHRs
system.gpu.shader_cores0.lsq.mshrsFullCycles            0                       # Number of cycles stalled waiting for an MSHR
system.gpu.shader_cores0.lsq.mshrsFullCount            0                       # Number of times MSHRs filled
system.gpu.shader_cores0.lsq.warpCoalescedAccesses::samples          416                       # Number of coalesced accesses per warp instruction
system.gpu.shader_cores0.lsq.warpCoalescedAccesses::mean     1.769231                       # Number of coalesced accesses per warp instruction
system.gpu.shader_cores0.lsq.warpCoalescedAccesses::gmean     1.608176                       # Number of coalesced accesses per warp instruction
system.gpu.shader_cores0.lsq.warpCoalescedAccesses::stdev     0.763388                       # Number of coalesced accesses per warp instruction
system.gpu.shader_cores0.lsq.warpCoalescedAccesses::0            0      0.00%      0.00% # Number of coalesced accesses per warp instruction
system.gpu.shader_cores0.lsq.warpCoalescedAccesses::1          180     43.27%     43.27% # Number of coalesced accesses per warp instruction
system.gpu.shader_cores0.lsq.warpCoalescedAccesses::2          152     36.54%     79.81% # Number of coalesced accesses per warp instruction
system.gpu.shader_cores0.lsq.warpCoalescedAccesses::3           84     20.19%    100.00% # Number of coalesced accesses per warp instruction
system.gpu.shader_cores0.lsq.warpCoalescedAccesses::4            0      0.00%    100.00% # Number of coalesced accesses per warp instruction
system.gpu.shader_cores0.lsq.warpCoalescedAccesses::5            0      0.00%    100.00% # Number of coalesced accesses per warp instruction
system.gpu.shader_cores0.lsq.warpCoalescedAccesses::6            0      0.00%    100.00% # Number of coalesced accesses per warp instruction
system.gpu.shader_cores0.lsq.warpCoalescedAccesses::7            0      0.00%    100.00% # Number of coalesced accesses per warp instruction
system.gpu.shader_cores0.lsq.warpCoalescedAccesses::8            0      0.00%    100.00% # Number of coalesced accesses per warp instruction
system.gpu.shader_cores0.lsq.warpCoalescedAccesses::9            0      0.00%    100.00% # Number of coalesced accesses per warp instruction
system.gpu.shader_cores0.lsq.warpCoalescedAccesses::10            0      0.00%    100.00% # Number of coalesced accesses per warp instruction
system.gpu.shader_cores0.lsq.warpCoalescedAccesses::11            0      0.00%    100.00% # Number of coalesced accesses per warp instruction
system.gpu.shader_cores0.lsq.warpCoalescedAccesses::12            0      0.00%    100.00% # Number of coalesced accesses per warp instruction
system.gpu.shader_cores0.lsq.warpCoalescedAccesses::13            0      0.00%    100.00% # Number of coalesced accesses per warp instruction
system.gpu.shader_cores0.lsq.warpCoalescedAccesses::14            0      0.00%    100.00% # Number of coalesced accesses per warp instruction
system.gpu.shader_cores0.lsq.warpCoalescedAccesses::15            0      0.00%    100.00% # Number of coalesced accesses per warp instruction
system.gpu.shader_cores0.lsq.warpCoalescedAccesses::16            0      0.00%    100.00% # Number of coalesced accesses per warp instruction
system.gpu.shader_cores0.lsq.warpCoalescedAccesses::17            0      0.00%    100.00% # Number of coalesced accesses per warp instruction
system.gpu.shader_cores0.lsq.warpCoalescedAccesses::18            0      0.00%    100.00% # Number of coalesced accesses per warp instruction
system.gpu.shader_cores0.lsq.warpCoalescedAccesses::19            0      0.00%    100.00% # Number of coalesced accesses per warp instruction
system.gpu.shader_cores0.lsq.warpCoalescedAccesses::20            0      0.00%    100.00% # Number of coalesced accesses per warp instruction
system.gpu.shader_cores0.lsq.warpCoalescedAccesses::21            0      0.00%    100.00% # Number of coalesced accesses per warp instruction
system.gpu.shader_cores0.lsq.warpCoalescedAccesses::22            0      0.00%    100.00% # Number of coalesced accesses per warp instruction
system.gpu.shader_cores0.lsq.warpCoalescedAccesses::23            0      0.00%    100.00% # Number of coalesced accesses per warp instruction
system.gpu.shader_cores0.lsq.warpCoalescedAccesses::24            0      0.00%    100.00% # Number of coalesced accesses per warp instruction
system.gpu.shader_cores0.lsq.warpCoalescedAccesses::25            0      0.00%    100.00% # Number of coalesced accesses per warp instruction
system.gpu.shader_cores0.lsq.warpCoalescedAccesses::26            0      0.00%    100.00% # Number of coalesced accesses per warp instruction
system.gpu.shader_cores0.lsq.warpCoalescedAccesses::27            0      0.00%    100.00% # Number of coalesced accesses per warp instruction
system.gpu.shader_cores0.lsq.warpCoalescedAccesses::28            0      0.00%    100.00% # Number of coalesced accesses per warp instruction
system.gpu.shader_cores0.lsq.warpCoalescedAccesses::29            0      0.00%    100.00% # Number of coalesced accesses per warp instruction
system.gpu.shader_cores0.lsq.warpCoalescedAccesses::30            0      0.00%    100.00% # Number of coalesced accesses per warp instruction
system.gpu.shader_cores0.lsq.warpCoalescedAccesses::31            0      0.00%    100.00% # Number of coalesced accesses per warp instruction
system.gpu.shader_cores0.lsq.warpCoalescedAccesses::32            0      0.00%    100.00% # Number of coalesced accesses per warp instruction
system.gpu.shader_cores0.lsq.warpCoalescedAccesses::total          416                       # Number of coalesced accesses per warp instruction
system.gpu.shader_cores0.lsq.warpLatencyRead::samples          288                       # Latency in cycles for whole warp to finish the read
system.gpu.shader_cores0.lsq.warpLatencyRead::mean   220.329861                       # Latency in cycles for whole warp to finish the read
system.gpu.shader_cores0.lsq.warpLatencyRead::gmean    96.074864                       # Latency in cycles for whole warp to finish the read
system.gpu.shader_cores0.lsq.warpLatencyRead::stdev   207.801682                       # Latency in cycles for whole warp to finish the read
system.gpu.shader_cores0.lsq.warpLatencyRead::0-63          105     36.46%     36.46% # Latency in cycles for whole warp to finish the read
system.gpu.shader_cores0.lsq.warpLatencyRead::64-127           16      5.56%     42.01% # Latency in cycles for whole warp to finish the read
system.gpu.shader_cores0.lsq.warpLatencyRead::128-191           42     14.58%     56.60% # Latency in cycles for whole warp to finish the read
system.gpu.shader_cores0.lsq.warpLatencyRead::192-255           20      6.94%     63.54% # Latency in cycles for whole warp to finish the read
system.gpu.shader_cores0.lsq.warpLatencyRead::256-319           19      6.60%     70.14% # Latency in cycles for whole warp to finish the read
system.gpu.shader_cores0.lsq.warpLatencyRead::320-383           13      4.51%     74.65% # Latency in cycles for whole warp to finish the read
system.gpu.shader_cores0.lsq.warpLatencyRead::384-447           22      7.64%     82.29% # Latency in cycles for whole warp to finish the read
system.gpu.shader_cores0.lsq.warpLatencyRead::448-511            9      3.12%     85.42% # Latency in cycles for whole warp to finish the read
system.gpu.shader_cores0.lsq.warpLatencyRead::512-575           20      6.94%     92.36% # Latency in cycles for whole warp to finish the read
system.gpu.shader_cores0.lsq.warpLatencyRead::576-639           14      4.86%     97.22% # Latency in cycles for whole warp to finish the read
system.gpu.shader_cores0.lsq.warpLatencyRead::640-703            6      2.08%     99.31% # Latency in cycles for whole warp to finish the read
system.gpu.shader_cores0.lsq.warpLatencyRead::704-767            1      0.35%     99.65% # Latency in cycles for whole warp to finish the read
system.gpu.shader_cores0.lsq.warpLatencyRead::768-831            1      0.35%    100.00% # Latency in cycles for whole warp to finish the read
system.gpu.shader_cores0.lsq.warpLatencyRead::832-895            0      0.00%    100.00% # Latency in cycles for whole warp to finish the read
system.gpu.shader_cores0.lsq.warpLatencyRead::896-959            0      0.00%    100.00% # Latency in cycles for whole warp to finish the read
system.gpu.shader_cores0.lsq.warpLatencyRead::960-1023            0      0.00%    100.00% # Latency in cycles for whole warp to finish the read
system.gpu.shader_cores0.lsq.warpLatencyRead::total          288                       # Latency in cycles for whole warp to finish the read
system.gpu.shader_cores0.lsq.warpLatencyWrite::samples          128                       # Latency in cycles for whole warp to finish the write
system.gpu.shader_cores0.lsq.warpLatencyWrite::mean   353.398438                       # Latency in cycles for whole warp to finish the write
system.gpu.shader_cores0.lsq.warpLatencyWrite::gmean   319.332323                       # Latency in cycles for whole warp to finish the write
system.gpu.shader_cores0.lsq.warpLatencyWrite::stdev   150.283582                       # Latency in cycles for whole warp to finish the write
system.gpu.shader_cores0.lsq.warpLatencyWrite::0-63            0      0.00%      0.00% # Latency in cycles for whole warp to finish the write
system.gpu.shader_cores0.lsq.warpLatencyWrite::64-127            3      2.34%      2.34% # Latency in cycles for whole warp to finish the write
system.gpu.shader_cores0.lsq.warpLatencyWrite::128-191           17     13.28%     15.62% # Latency in cycles for whole warp to finish the write
system.gpu.shader_cores0.lsq.warpLatencyWrite::192-255           25     19.53%     35.16% # Latency in cycles for whole warp to finish the write
system.gpu.shader_cores0.lsq.warpLatencyWrite::256-319           19     14.84%     50.00% # Latency in cycles for whole warp to finish the write
system.gpu.shader_cores0.lsq.warpLatencyWrite::320-383            8      6.25%     56.25% # Latency in cycles for whole warp to finish the write
system.gpu.shader_cores0.lsq.warpLatencyWrite::384-447           12      9.38%     65.62% # Latency in cycles for whole warp to finish the write
system.gpu.shader_cores0.lsq.warpLatencyWrite::448-511           20     15.62%     81.25% # Latency in cycles for whole warp to finish the write
system.gpu.shader_cores0.lsq.warpLatencyWrite::512-575           16     12.50%     93.75% # Latency in cycles for whole warp to finish the write
system.gpu.shader_cores0.lsq.warpLatencyWrite::576-639            6      4.69%     98.44% # Latency in cycles for whole warp to finish the write
system.gpu.shader_cores0.lsq.warpLatencyWrite::640-703            1      0.78%     99.22% # Latency in cycles for whole warp to finish the write
system.gpu.shader_cores0.lsq.warpLatencyWrite::704-767            1      0.78%    100.00% # Latency in cycles for whole warp to finish the write
system.gpu.shader_cores0.lsq.warpLatencyWrite::768-831            0      0.00%    100.00% # Latency in cycles for whole warp to finish the write
system.gpu.shader_cores0.lsq.warpLatencyWrite::832-895            0      0.00%    100.00% # Latency in cycles for whole warp to finish the write
system.gpu.shader_cores0.lsq.warpLatencyWrite::896-959            0      0.00%    100.00% # Latency in cycles for whole warp to finish the write
system.gpu.shader_cores0.lsq.warpLatencyWrite::960-1023            0      0.00%    100.00% # Latency in cycles for whole warp to finish the write
system.gpu.shader_cores0.lsq.warpLatencyWrite::total          128                       # Latency in cycles for whole warp to finish the write
system.gpu.shader_cores0.lsq.warpLatencyFence::samples          288                       # Latency in cycles for whole warp to finish the fence
system.gpu.shader_cores0.lsq.warpLatencyFence::mean    82.614583                       # Latency in cycles for whole warp to finish the fence
system.gpu.shader_cores0.lsq.warpLatencyFence::gmean    14.750624                       # Latency in cycles for whole warp to finish the fence
system.gpu.shader_cores0.lsq.warpLatencyFence::stdev   160.190068                       # Latency in cycles for whole warp to finish the fence
system.gpu.shader_cores0.lsq.warpLatencyFence::0-63          224     77.78%     77.78% # Latency in cycles for whole warp to finish the fence
system.gpu.shader_cores0.lsq.warpLatencyFence::64-127            0      0.00%     77.78% # Latency in cycles for whole warp to finish the fence
system.gpu.shader_cores0.lsq.warpLatencyFence::128-191           12      4.17%     81.94% # Latency in cycles for whole warp to finish the fence
system.gpu.shader_cores0.lsq.warpLatencyFence::192-255           15      5.21%     87.15% # Latency in cycles for whole warp to finish the fence
system.gpu.shader_cores0.lsq.warpLatencyFence::256-319            6      2.08%     89.24% # Latency in cycles for whole warp to finish the fence
system.gpu.shader_cores0.lsq.warpLatencyFence::320-383            3      1.04%     90.28% # Latency in cycles for whole warp to finish the fence
system.gpu.shader_cores0.lsq.warpLatencyFence::384-447            0      0.00%     90.28% # Latency in cycles for whole warp to finish the fence
system.gpu.shader_cores0.lsq.warpLatencyFence::448-511           15      5.21%     95.49% # Latency in cycles for whole warp to finish the fence
system.gpu.shader_cores0.lsq.warpLatencyFence::512-575           11      3.82%     99.31% # Latency in cycles for whole warp to finish the fence
system.gpu.shader_cores0.lsq.warpLatencyFence::576-639            2      0.69%    100.00% # Latency in cycles for whole warp to finish the fence
system.gpu.shader_cores0.lsq.warpLatencyFence::640-703            0      0.00%    100.00% # Latency in cycles for whole warp to finish the fence
system.gpu.shader_cores0.lsq.warpLatencyFence::704-767            0      0.00%    100.00% # Latency in cycles for whole warp to finish the fence
system.gpu.shader_cores0.lsq.warpLatencyFence::768-831            0      0.00%    100.00% # Latency in cycles for whole warp to finish the fence
system.gpu.shader_cores0.lsq.warpLatencyFence::832-895            0      0.00%    100.00% # Latency in cycles for whole warp to finish the fence
system.gpu.shader_cores0.lsq.warpLatencyFence::896-959            0      0.00%    100.00% # Latency in cycles for whole warp to finish the fence
system.gpu.shader_cores0.lsq.warpLatencyFence::960-1023            0      0.00%    100.00% # Latency in cycles for whole warp to finish the fence
system.gpu.shader_cores0.lsq.warpLatencyFence::total          288                       # Latency in cycles for whole warp to finish the fence
system.gpu.shader_cores0.lsq.warpLatencyAtomic::samples            0                       # Latency in cycles for whole warp to finish the atomic
system.gpu.shader_cores0.lsq.warpLatencyAtomic::mean          nan                       # Latency in cycles for whole warp to finish the atomic
system.gpu.shader_cores0.lsq.warpLatencyAtomic::gmean          nan                       # Latency in cycles for whole warp to finish the atomic
system.gpu.shader_cores0.lsq.warpLatencyAtomic::stdev          nan                       # Latency in cycles for whole warp to finish the atomic
system.gpu.shader_cores0.lsq.warpLatencyAtomic::0            0                       # Latency in cycles for whole warp to finish the atomic
system.gpu.shader_cores0.lsq.warpLatencyAtomic::1            0                       # Latency in cycles for whole warp to finish the atomic
system.gpu.shader_cores0.lsq.warpLatencyAtomic::2            0                       # Latency in cycles for whole warp to finish the atomic
system.gpu.shader_cores0.lsq.warpLatencyAtomic::3            0                       # Latency in cycles for whole warp to finish the atomic
system.gpu.shader_cores0.lsq.warpLatencyAtomic::4            0                       # Latency in cycles for whole warp to finish the atomic
system.gpu.shader_cores0.lsq.warpLatencyAtomic::5            0                       # Latency in cycles for whole warp to finish the atomic
system.gpu.shader_cores0.lsq.warpLatencyAtomic::6            0                       # Latency in cycles for whole warp to finish the atomic
system.gpu.shader_cores0.lsq.warpLatencyAtomic::7            0                       # Latency in cycles for whole warp to finish the atomic
system.gpu.shader_cores0.lsq.warpLatencyAtomic::8            0                       # Latency in cycles for whole warp to finish the atomic
system.gpu.shader_cores0.lsq.warpLatencyAtomic::9            0                       # Latency in cycles for whole warp to finish the atomic
system.gpu.shader_cores0.lsq.warpLatencyAtomic::10            0                       # Latency in cycles for whole warp to finish the atomic
system.gpu.shader_cores0.lsq.warpLatencyAtomic::11            0                       # Latency in cycles for whole warp to finish the atomic
system.gpu.shader_cores0.lsq.warpLatencyAtomic::12            0                       # Latency in cycles for whole warp to finish the atomic
system.gpu.shader_cores0.lsq.warpLatencyAtomic::13            0                       # Latency in cycles for whole warp to finish the atomic
system.gpu.shader_cores0.lsq.warpLatencyAtomic::14            0                       # Latency in cycles for whole warp to finish the atomic
[...]
system.ruby.Locked_RMW_Write.L1Cache.hit_type_mach_latency_hist::samples           10                      
system.ruby.Locked_RMW_Write.L1Cache.hit_type_mach_latency_hist::mean            1                      
system.ruby.Locked_RMW_Write.L1Cache.hit_type_mach_latency_hist::gmean            1                      
system.ruby.Locked_RMW_Write.L1Cache.hit_type_mach_latency_hist |           0      0.00%      0.00% |          10    100.00%    100.00% |           0      0.00%    100.00% |           0      0.00%    100.00% |           0      0.00%    100.00% |           0      0.00%    100.00% |           0      0.00%    100.00% |           0      0.00%    100.00% |           0      0.00%    100.00% |           0      0.00%    100.00%
system.ruby.Locked_RMW_Write.L1Cache.hit_type_mach_latency_hist::total           10                      
system.ruby.GPUCopyDMA_Controller.ReadRequest |         423     73.31%     73.31% |         154     26.69%    100.00%
system.ruby.GPUCopyDMA_Controller.ReadRequest::total          577                      
system.ruby.GPUCopyDMA_Controller.WriteRequest |         155     26.91%     26.91% |         421     73.09%    100.00%
system.ruby.GPUCopyDMA_Controller.WriteRequest::total          576                      
system.ruby.GPUCopyDMA_Controller.Data   |         423     73.31%     73.31% |         154     26.69%    100.00%
system.ruby.GPUCopyDMA_Controller.Data::total          577                      
system.ruby.GPUCopyDMA_Controller.Ack    |         155     26.91%     26.91% |         421     73.09%    100.00%
system.ruby.GPUCopyDMA_Controller.Ack::total          576                      
system.ruby.GPUCopyDMA_Controller.READY.ReadRequest |         423     73.31%     73.31% |         154     26.69%    100.00%
system.ruby.GPUCopyDMA_Controller.READY.ReadRequest::total          577                      
system.ruby.GPUCopyDMA_Controller.READY.WriteRequest |         155     26.91%     26.91% |         421     73.09%    100.00%
system.ruby.GPUCopyDMA_Controller.READY.WriteRequest::total          576                      
system.ruby.GPUCopyDMA_Controller.BUSY_RD.Data |         423     73.31%     73.31% |         154     26.69%    100.00%
system.ruby.GPUCopyDMA_Controller.BUSY_RD.Data::total          577                      
system.ruby.GPUCopyDMA_Controller.BUSY_WR.Ack |         155     26.91%     26.91% |         421     73.09%    100.00%
system.ruby.GPUCopyDMA_Controller.BUSY_WR.Ack::total          576                      
system.ruby.Directory_Controller.GETX    |         784     98.99%     98.99% |           8      1.01%    100.00%
system.ruby.Directory_Controller.GETX::total          792                      
system.ruby.Directory_Controller.GETS    |         648     59.89%     59.89% |         434     40.11%    100.00%
system.ruby.Directory_Controller.GETS::total         1082                      
system.ruby.Directory_Controller.UnblockM |        1432     76.41%     76.41% |         442     23.59%    100.00%
system.ruby.Directory_Controller.UnblockM::total         1874                      
system.ruby.Directory_Controller.DMA_READ |         423     73.31%     73.31% |         154     26.69%    100.00%
system.ruby.Directory_Controller.DMA_READ::total          577                      
system.ruby.Directory_Controller.DMA_WRITE |         155     26.91%     26.91% |         421     73.09%    100.00%
system.ruby.Directory_Controller.DMA_WRITE::total          576                      
system.ruby.Directory_Controller.Memory_Data |        1564     77.97%     77.97% |         442     22.03%    100.00%
system.ruby.Directory_Controller.Memory_Data::total         2006                      
system.ruby.Directory_Controller.Memory_Ack |         572     50.26%     50.26% |         566     49.74%    100.00%
system.ruby.Directory_Controller.Memory_Ack::total         1138                      
system.ruby.Directory_Controller.Ack     |         855     49.88%     49.88% |         859     50.12%    100.00%
system.ruby.Directory_Controller.Ack::total         1714                      
system.ruby.Directory_Controller.Shared_Data |           6     40.00%     40.00% |           9     60.00%    100.00%
system.ruby.Directory_Controller.Shared_Data::total           15                      
system.ruby.Directory_Controller.Data    |           5    100.00%    100.00% |           0      0.00%    100.00%
system.ruby.Directory_Controller.Data::total            5                      
system.ruby.Directory_Controller.Exclusive_Data |         290     50.70%     50.70% |         282     49.30%    100.00%
system.ruby.Directory_Controller.Exclusive_Data::total          572                      
system.ruby.Directory_Controller.All_acks_and_shared_data |           6     40.00%     40.00% |           9     60.00%    100.00%
system.ruby.Directory_Controller.All_acks_and_shared_data::total           15                      
system.ruby.Directory_Controller.All_acks_and_data_no_sharers |         572     50.26%     50.26% |         566     49.74%    100.00%
system.ruby.Directory_Controller.All_acks_and_data_no_sharers::total         1138                      
system.ruby.Directory_Controller.NO.DMA_READ |         290     65.32%     65.32% |         154     34.68%    100.00%
system.ruby.Directory_Controller.NO.DMA_READ::total          444                      
system.ruby.Directory_Controller.NO.DMA_WRITE |           5      3.52%      3.52% |         137     96.48%    100.00%
system.ruby.Directory_Controller.NO.DMA_WRITE::total          142                      
system.ruby.Directory_Controller.S.DMA_READ |           1    100.00%    100.00% |           0      0.00%    100.00%
system.ruby.Directory_Controller.S.DMA_READ::total            1                      
system.ruby.Directory_Controller.S.DMA_WRITE |           5    100.00%    100.00% |           0      0.00%    100.00%
system.ruby.Directory_Controller.S.DMA_WRITE::total            5                      
system.ruby.Directory_Controller.E.GETX  |         784     98.99%     98.99% |           8      1.01%    100.00%
system.ruby.Directory_Controller.E.GETX::total          792                      
system.ruby.Directory_Controller.E.GETS  |         648     59.89%     59.89% |         434     40.11%    100.00%
system.ruby.Directory_Controller.E.GETS::total         1082                      
system.ruby.Directory_Controller.E.DMA_READ |         132    100.00%    100.00% |           0      0.00%    100.00%
system.ruby.Directory_Controller.E.DMA_READ::total          132                      
system.ruby.Directory_Controller.E.DMA_WRITE |         145     33.80%     33.80% |         284     66.20%    100.00%
system.ruby.Directory_Controller.E.DMA_WRITE::total          429                      
system.ruby.Directory_Controller.NO_B.UnblockM |        1432     76.41%     76.41% |         442     23.59%    100.00%
system.ruby.Directory_Controller.NO_B.UnblockM::total         1874                      
system.ruby.Directory_Controller.NO_B_W.Memory_Data |        1432     76.41%     76.41% |         442     23.59%    100.00%
system.ruby.Directory_Controller.NO_B_W.Memory_Data::total         1874                      
system.ruby.Directory_Controller.NO_DW_B_W.Ack |         300     29.85%     29.85% |         705     70.15%    100.00%
system.ruby.Directory_Controller.NO_DW_B_W.Ack::total         1005                      
system.ruby.Directory_Controller.NO_DW_B_W.Data |           5    100.00%    100.00% |           0      0.00%    100.00%
system.ruby.Directory_Controller.NO_DW_B_W.Data::total            5                      
system.ruby.Directory_Controller.NO_DW_B_W.Exclusive_Data |           5      3.52%      3.52% |         137     96.48%    100.00%
system.ruby.Directory_Controller.NO_DW_B_W.Exclusive_Data::total          142                      
system.ruby.Directory_Controller.NO_DW_B_W.All_acks_and_data_no_sharers |         155     26.91%     26.91% |         421     73.09%    100.00%
system.ruby.Directory_Controller.NO_DW_B_W.All_acks_and_data_no_sharers::total          576                      
system.ruby.Directory_Controller.NO_DR_B_W.Memory_Data |         132    100.00%    100.00% |           0      0.00%    100.00%
system.ruby.Directory_Controller.NO_DR_B_W.Memory_Data::total          132                      
system.ruby.Directory_Controller.NO_DR_B_W.Ack |         264    100.00%    100.00% |           0      0.00%    100.00%
system.ruby.Directory_Controller.NO_DR_B_W.Ack::total          264                      
system.ruby.Directory_Controller.NO_DR_B_D.Ack |         291     65.39%     65.39% |         154     34.61%    100.00%
system.ruby.Directory_Controller.NO_DR_B_D.Ack::total          445                      
system.ruby.Directory_Controller.NO_DR_B_D.Shared_Data |           6     40.00%     40.00% |           9     60.00%    100.00%
system.ruby.Directory_Controller.NO_DR_B_D.Shared_Data::total           15                      
system.ruby.Directory_Controller.NO_DR_B_D.Exclusive_Data |         285     66.28%     66.28% |         145     33.72%    100.00%
system.ruby.Directory_Controller.NO_DR_B_D.Exclusive_Data::total          430                      
system.ruby.Directory_Controller.NO_DR_B_D.All_acks_and_shared_data |           6     40.00%     40.00% |           9     60.00%    100.00%
system.ruby.Directory_Controller.NO_DR_B_D.All_acks_and_shared_data::total           15                      
system.ruby.Directory_Controller.NO_DR_B_D.All_acks_and_data_no_sharers |         285     66.28%     66.28% |         145     33.72%    100.00%
system.ruby.Directory_Controller.NO_DR_B_D.All_acks_and_data_no_sharers::total          430                      
system.ruby.Directory_Controller.NO_DR_B.All_acks_and_data_no_sharers |         132    100.00%    100.00% |           0      0.00%    100.00%
system.ruby.Directory_Controller.NO_DR_B.All_acks_and_data_no_sharers::total          132                      
system.ruby.Directory_Controller.NO_DW_W.Memory_Ack |         155     26.91%     26.91% |         421     73.09%    100.00%
system.ruby.Directory_Controller.NO_DW_W.Memory_Ack::total          576                      
system.ruby.Directory_Controller.WB_E_W.Memory_Ack |         417     74.20%     74.20% |         145     25.80%    100.00%
system.ruby.Directory_Controller.WB_E_W.Memory_Ack::total          562                      
system.ruby.L1Cache_Controller.Load           1237996      0.00%      0.00%
system.ruby.L1Cache_Controller.Ifetch         6646498      0.00%      0.00%
system.ruby.L1Cache_Controller.Store           843082      0.00%      0.00%
system.ruby.L1Cache_Controller.L1_to_L2          6170      0.00%      0.00%
system.ruby.L1Cache_Controller.Trigger_L2_to_L1D          509      0.00%      0.00%
system.ruby.L1Cache_Controller.Trigger_L2_to_L1I         5063      0.00%      0.00%
system.ruby.L1Cache_Controller.Complete_L2_to_L1         5572      0.00%      0.00%
system.ruby.L1Cache_Controller.Other_GETX          584      0.00%      0.00%
system.ruby.L1Cache_Controller.Other_GETS         1011      0.00%      0.00%
system.ruby.L1Cache_Controller.Ack               1432      0.00%      0.00%
system.ruby.L1Cache_Controller.Exclusive_Data         1432      0.00%      0.00%
system.ruby.L1Cache_Controller.All_acks_no_sharers         1432      0.00%      0.00%
system.ruby.L1Cache_Controller.I.Load             147      0.00%      0.00%
system.ruby.L1Cache_Controller.I.Ifetch           457      0.00%      0.00%
system.ruby.L1Cache_Controller.I.Store            784      0.00%      0.00%
system.ruby.L1Cache_Controller.I.L1_to_L2          112      0.00%      0.00%
system.ruby.L1Cache_Controller.I.Trigger_L2_to_L1D           44      0.00%      0.00%
system.ruby.L1Cache_Controller.I.Other_GETX          574      0.00%      0.00%
system.ruby.L1Cache_Controller.I.Other_GETS          720      0.00%      0.00%
system.ruby.L1Cache_Controller.O.Load               6      0.00%      0.00%
system.ruby.L1Cache_Controller.O.Other_GETX            5      0.00%      0.00%
system.ruby.L1Cache_Controller.O.Other_GETS            1      0.00%      0.00%
system.ruby.L1Cache_Controller.M.Load          103153      0.00%      0.00%
system.ruby.L1Cache_Controller.M.Ifetch       6640978      0.00%      0.00%
system.ruby.L1Cache_Controller.M.Store             28      0.00%      0.00%
system.ruby.L1Cache_Controller.M.L1_to_L2         5398      0.00%      0.00%
system.ruby.L1Cache_Controller.M.Trigger_L2_to_L1D           21      0.00%      0.00%
system.ruby.L1Cache_Controller.M.Trigger_L2_to_L1I         5063      0.00%      0.00%
system.ruby.L1Cache_Controller.M.Other_GETX            5      0.00%      0.00%
system.ruby.L1Cache_Controller.M.Other_GETS            5      0.00%      0.00%
system.ruby.L1Cache_Controller.MM.Load        1134206      0.00%      0.00%
system.ruby.L1Cache_Controller.MM.Store        842245      0.00%      0.00%
system.ruby.L1Cache_Controller.MM.L1_to_L2          660      0.00%      0.00%
system.ruby.L1Cache_Controller.MM.Trigger_L2_to_L1D          444      0.00%      0.00%
system.ruby.L1Cache_Controller.MM.Other_GETS          285      0.00%      0.00%
system.ruby.L1Cache_Controller.IR.Load             44      0.00%      0.00%
system.ruby.L1Cache_Controller.MR.Load             20      0.00%      0.00%
system.ruby.L1Cache_Controller.MR.Ifetch         5063      0.00%      0.00%
system.ruby.L1Cache_Controller.MR.Store             1      0.00%      0.00%
system.ruby.L1Cache_Controller.MMR.Load           420      0.00%      0.00%
system.ruby.L1Cache_Controller.MMR.Store           24      0.00%      0.00%
system.ruby.L1Cache_Controller.IM.Ack             784      0.00%      0.00%
system.ruby.L1Cache_Controller.IM.Exclusive_Data          784      0.00%      0.00%
system.ruby.L1Cache_Controller.M_W.All_acks_no_sharers          648      0.00%      0.00%
system.ruby.L1Cache_Controller.MM_W.All_acks_no_sharers          784      0.00%      0.00%
system.ruby.L1Cache_Controller.IS.Ack             648      0.00%      0.00%
system.ruby.L1Cache_Controller.IS.Exclusive_Data          648      0.00%      0.00%
system.ruby.L1Cache_Controller.IT.Complete_L2_to_L1           44      0.00%      0.00%
system.ruby.L1Cache_Controller.MT.Complete_L2_to_L1         5084      0.00%      0.00%
system.ruby.L1Cache_Controller.MMT.Complete_L2_to_L1          444      0.00%      0.00%
system.ruby.GPUL1Cache_Controller.Load   |         428     25.28%     25.28% |         421     24.87%     50.15% |         428     25.28%     75.43% |         416     24.57%    100.00%
system.ruby.GPUL1Cache_Controller.Load::total         1693                      
system.ruby.GPUL1Cache_Controller.Ifetch |          12     24.49%     24.49% |          13     26.53%     51.02% |          12     24.49%     75.51% |          12     24.49%    100.00%
system.ruby.GPUL1Cache_Controller.Ifetch::total           49                      
system.ruby.GPUL1Cache_Controller.Store  |         308     24.48%     24.48% |         322     25.60%     50.08% |         308     24.48%     74.56% |         320     25.44%    100.00%
system.ruby.GPUL1Cache_Controller.Store::total         1258                      
system.ruby.GPUL1Cache_Controller.Data   |         131     23.65%     23.65% |         142     25.63%     49.28% |         134     24.19%     73.47% |         147     26.53%    100.00%
system.ruby.GPUL1Cache_Controller.Data::total          554                      
system.ruby.GPUL1Cache_Controller.Write_Ack |         308     24.48%     24.48% |         322     25.60%     50.08% |         308     24.48%     74.56% |         320     25.44%    100.00%
system.ruby.GPUL1Cache_Controller.Write_Ack::total         1258                      
system.ruby.GPUL1Cache_Controller.I.Load |         119     23.56%     23.56% |         129     25.54%     49.11% |         122     24.16%     73.27% |         135     26.73%    100.00%
system.ruby.GPUL1Cache_Controller.I.Load::total          505                      
system.ruby.GPUL1Cache_Controller.I.Ifetch |          12     24.49%     24.49% |          13     26.53%     51.02% |          12     24.49%     75.51% |          12     24.49%    100.00%
system.ruby.GPUL1Cache_Controller.I.Ifetch::total           49                      
system.ruby.GPUL1Cache_Controller.I.Store |         198     25.35%     25.35% |         198     25.35%     50.70% |         195     24.97%     75.67% |         190     24.33%    100.00%
system.ruby.GPUL1Cache_Controller.I.Store::total          781                      
system.ruby.GPUL1Cache_Controller.V.Load |         309     26.01%     26.01% |         292     24.58%     50.59% |         306     25.76%     76.35% |         281     23.65%    100.00%
system.ruby.GPUL1Cache_Controller.V.Load::total         1188                      
system.ruby.GPUL1Cache_Controller.V.Store |         110     23.06%     23.06% |         124     26.00%     49.06% |         113     23.69%     72.75% |         130     27.25%    100.00%
system.ruby.GPUL1Cache_Controller.V.Store::total          477                      
system.ruby.GPUL1Cache_Controller.IA.Write_Ack |         308     24.48%     24.48% |         322     25.60%     50.08% |         308     24.48%     74.56% |         320     25.44%    100.00%
system.ruby.GPUL1Cache_Controller.IA.Write_Ack::total         1258                      
system.ruby.GPUL1Cache_Controller.IV.Data |         131     23.65%     23.65% |         142     25.63%     49.28% |         134     24.19%     73.47% |         147     26.53%    100.00%
system.ruby.GPUL1Cache_Controller.IV.Data::total          554                      
system.ruby.GPUL2Cache_Controller.Get             651      0.00%      0.00%
system.ruby.GPUL2Cache_Controller.Store          1263      0.00%      0.00%
system.ruby.GPUL2Cache_Controller.Other_GETX         1360      0.00%      0.00%
system.ruby.GPUL2Cache_Controller.Other_GETS         1225      0.00%      0.00%
system.ruby.GPUL2Cache_Controller.Ack             442      0.00%      0.00%
system.ruby.GPUL2Cache_Controller.Exclusive_Data          442      0.00%      0.00%
system.ruby.GPUL2Cache_Controller.All_acks_no_sharers          442      0.00%      0.00%
system.ruby.GPUL2Cache_Controller.I.Get           434      0.00%      0.00%
system.ruby.GPUL2Cache_Controller.I.Store            8      0.00%      0.00%
system.ruby.GPUL2Cache_Controller.I.Other_GETX         1223      0.00%      0.00%
system.ruby.GPUL2Cache_Controller.I.Other_GETS         1071      0.00%      0.00%
system.ruby.GPUL2Cache_Controller.M.Get             4      0.00%      0.00%
system.ruby.GPUL2Cache_Controller.M.Store          411      0.00%      0.00%
system.ruby.GPUL2Cache_Controller.M.Other_GETS            9      0.00%      0.00%
system.ruby.GPUL2Cache_Controller.MM.Get           21      0.00%      0.00%
system.ruby.GPUL2Cache_Controller.MM.Store          834      0.00%      0.00%
system.ruby.GPUL2Cache_Controller.MM.Other_GETX          137      0.00%      0.00%
system.ruby.GPUL2Cache_Controller.MM.Other_GETS          145      0.00%      0.00%
system.ruby.GPUL2Cache_Controller.IM.Store            5      0.00%      0.00%
system.ruby.GPUL2Cache_Controller.IM.Ack            8      0.00%      0.00%
system.ruby.GPUL2Cache_Controller.IM.Exclusive_Data            8      0.00%      0.00%
system.ruby.GPUL2Cache_Controller.IS.Get           97      0.00%      0.00%
system.ruby.GPUL2Cache_Controller.IS.Ack          434      0.00%      0.00%
system.ruby.GPUL2Cache_Controller.IS.Exclusive_Data          434      0.00%      0.00%
system.ruby.GPUL2Cache_Controller.M_W.Get           95      0.00%      0.00%
system.ruby.GPUL2Cache_Controller.M_W.All_acks_no_sharers          434      0.00%      0.00%
system.ruby.GPUL2Cache_Controller.MM_W.Store            5      0.00%      0.00%
system.ruby.GPUL2Cache_Controller.MM_W.All_acks_no_sharers            8      0.00%      0.00%

---------- End Simulation Statistics   ----------
