
---------- Begin Simulation Statistics ----------
sim_seconds                                  0.008731                       # Number of seconds simulated
sim_ticks                                  8730778500                       # Number of ticks simulated
final_tick                                 8730778500                       # Number of ticks from beginning of simulation (restored from checkpoints and never reset)
sim_freq                                 1000000000000                       # Frequency of simulated ticks
host_inst_rate                                 350120                       # Simulator instruction rate (inst/s)
host_op_rate                                   408033                       # Simulator op (including micro ops) rate (op/s)
host_tick_rate                              609085594                       # Simulator tick rate (ticks/s)
host_mem_usage                                4497116                       # Number of bytes of host memory used
host_seconds                                    14.33                       # Real time elapsed on the host
sim_insts                                     5018699                       # Number of instructions simulated
sim_ops                                       5848835                       # Number of ops (including micro ops) simulated
system.voltage_domain.voltage                       1                       # Voltage in Volts
system.clk_domain.clock                          1000                       # Clock period in ticks
system.mem_ctrls.clk_domain.clock                2500                       # Clock period in ticks
system.mem_ctrls.bytes_read::ruby.dir_cntrl0      1377664                       # Number of bytes read from this memory
system.mem_ctrls.bytes_read::total            1377664                       # Number of bytes read from this memory
system.mem_ctrls.bytes_written::ruby.dir_cntrl0      1296896                       # Number of bytes written to this memory
system.mem_ctrls.bytes_written::total         1296896                       # Number of bytes written to this memory
system.mem_ctrls.num_reads::ruby.dir_cntrl0        10763                       # Number of read requests responded to by this memory
system.mem_ctrls.num_reads::total               10763                       # Number of read requests responded to by this memory
system.mem_ctrls.num_writes::ruby.dir_cntrl0        10132                       # Number of write requests responded to by this memory
system.mem_ctrls.num_writes::total              10132                       # Number of write requests responded to by this memory
system.mem_ctrls.bw_read::ruby.dir_cntrl0    157793947                       # Total read bandwidth from this memory (bytes/s)
system.mem_ctrls.bw_read::total             157793947                       # Total read bandwidth from this memory (bytes/s)
system.mem_ctrls.bw_write::ruby.dir_cntrl0    148542996                       # Write bandwidth from this memory (bytes/s)
system.mem_ctrls.bw_write::total            148542996                       # Write bandwidth from this memory (bytes/s)
system.mem_ctrls.bw_total::ruby.dir_cntrl0    306336943                       # Total bandwidth to/from this memory (bytes/s)
system.mem_ctrls.bw_total::total            306336943                       # Total bandwidth to/from this memory (bytes/s)
system.mem_ctrls.memReq                         20895                       # Total number of memory requests
system.mem_ctrls.memRead                        10763                       # Number of memory reads
system.mem_ctrls.memWrite                       10132                       # Number of memory writes
system.mem_ctrls.memRefresh                     63506                       # Number of memory refreshes
system.mem_ctrls.memWaitCycles                 127693                       # Delay stalled at the head of the bank queue
system.mem_ctrls.memInputQ                      10977                       # Delay in the input queue
system.mem_ctrls.memBankQ                       34244                       # Delay behind the head of the bank queue
system.mem_ctrls.totalStalls                   172914                       # Total number of stall cycles
system.mem_ctrls.stallsPerReq                8.275377                       # Expected number of stall cycles per request
system.mem_ctrls.memBankBusy                    96695                       # memory stalls due to busy bank
system.mem_ctrls.memBusBusy                     11880                       # memory stalls due to busy bus
system.mem_ctrls.memReadWriteBusy                2178                       # memory stalls due to read write turnaround
system.mem_ctrls.memDataBusBusy                  1743                       # memory stalls due to read read turnaround
system.mem_ctrls.memArbWait                      8323                       # memory stalls due to arbitration
system.mem_ctrls.memNotOld                       6874                       # memory stalls due to anti starvation
system.mem_ctrls.memBankCount            |         539      2.58%      2.58% |         125      0.60%      3.18% |         156      0.75%      3.92% |         617      2.95%      6.88% |         178      0.85%      7.73% |         139      0.67%      8.39% |         169      0.81%      9.20% |         190      0.91%     10.11% |         171      0.82%     10.93% |         178      0.85%     11.78% |        2042      9.77%     21.56% |       11578     55.41%     76.97% |         203      0.97%     77.94% |         211      1.01%     78.95% |         476      2.28%     81.23% |         199      0.95%     82.18% |         188      0.90%     83.08% |         176      0.84%     83.92% |         552      2.64%     86.56% |         419      2.01%     88.57% |         156      0.75%     89.31% |         154      0.74%     90.05% |         164      0.78%     90.84% |         154      0.74%     91.57% |         156      0.75%     92.32% |         159      0.76%     93.08% |         339      1.62%     94.70% |         142      0.68%     95.38% |         539      2.58%     97.96% |         142      0.68%     98.64% |         147      0.70%     99.34% |         137      0.66%    100.00% # Number of accesses per bank
system.mem_ctrls.memBankCount::total            20895                       # Number of accesses per bank
system.ruby_clk_domain.clock                      500                       # Clock period in ticks
system.ruby.phys_mem.bytes_read::cpu.inst     23040996                       # Number of bytes read from this memory
system.ruby.phys_mem.bytes_read::cpu.data      4858051                       # Number of bytes read from this memory
system.ruby.phys_mem.bytes_read::gpu.ce         73052                       # Number of bytes read from this memory
system.ruby.phys_mem.bytes_read::gpu.shader_cores0.data        35072                       # Number of bytes read from this memory
system.ruby.phys_mem.bytes_read::gpu.shader_cores0.inst          208                       # Number of bytes read from this memory
system.ruby.phys_mem.bytes_read::gpu.shader_cores1.data        35456                       # Number of bytes read from this memory
system.ruby.phys_mem.bytes_read::gpu.shader_cores1.inst          208                       # Number of bytes read from this memory
system.ruby.phys_mem.bytes_read::gpu.shader_cores2.data        35072                       # Number of bytes read from this memory
system.ruby.phys_mem.bytes_read::gpu.shader_cores2.inst          208                       # Number of bytes read from this memory
system.ruby.phys_mem.bytes_read::gpu.shader_cores3.data        34816                       # Number of bytes read from this memory
system.ruby.phys_mem.bytes_read::gpu.shader_cores3.inst          208                       # Number of bytes read from this memory
system.ruby.phys_mem.bytes_read::total       28113347                       # Number of bytes read from this memory
system.ruby.phys_mem.bytes_inst_read::cpu.inst     23040996                       # Number of instructions bytes read from this memory
system.ruby.phys_mem.bytes_inst_read::gpu.shader_cores0.inst          208                       # Number of instructions bytes read from this memory
system.ruby.phys_mem.bytes_inst_read::gpu.shader_cores1.inst          208                       # Number of instructions bytes read from this memory
system.ruby.phys_mem.bytes_inst_read::gpu.shader_cores2.inst          208                       # Number of instructions bytes read from this memory
system.ruby.phys_mem.bytes_inst_read::gpu.shader_cores3.inst          208                       # Number of instructions bytes read from this memory
system.ruby.phys_mem.bytes_inst_read::total     23041828                       # Number of instructions bytes read from this memory
system.ruby.phys_mem.bytes_written::cpu.data      3503588                       # Number of bytes written to this memory
system.ruby.phys_mem.bytes_written::gpu.ce        73052                       # Number of bytes written to this memory
system.ruby.phys_mem.bytes_written::gpu.shader_cores0.data         8448                       # Number of bytes written to this memory
system.ruby.phys_mem.bytes_written::gpu.shader_cores1.data         8576                       # Number of bytes written to this memory
system.ruby.phys_mem.bytes_written::gpu.shader_cores2.data         8448                       # Number of bytes written to this memory
system.ruby.phys_mem.bytes_written::gpu.shader_cores3.data         8448                       # Number of bytes written to this memory
system.ruby.phys_mem.bytes_written::total      3610560                       # Number of bytes written to this memory
system.ruby.phys_mem.num_reads::cpu.inst      5760249                       # Number of read requests responded to by this memory
system.ruby.phys_mem.num_reads::cpu.data      1048710                       # Number of read requests responded to by this memory
system.ruby.phys_mem.num_reads::gpu.ce            577                       # Number of read requests responded to by this memory
system.ruby.phys_mem.num_reads::gpu.shader_cores0.data          428                       # Number of read requests responded to by this memory
system.ruby.phys_mem.num_reads::gpu.shader_cores0.inst           13                       # Number of read requests responded to by this memory
system.ruby.phys_mem.num_reads::gpu.shader_cores1.data          421                       # Number of read requests responded to by this memory
system.ruby.phys_mem.num_reads::gpu.shader_cores1.inst           13                       # Number of read requests responded to by this memory
system.ruby.phys_mem.num_reads::gpu.shader_cores2.data          428                       # Number of read requests responded to by this memory
system.ruby.phys_mem.num_reads::gpu.shader_cores2.inst           13                       # Number of read requests responded to by this memory
system.ruby.phys_mem.num_reads::gpu.shader_cores3.data          416                       # Number of read requests responded to by this memory
system.ruby.phys_mem.num_reads::gpu.shader_cores3.inst           13                       # Number of read requests responded to by this memory
system.ruby.phys_mem.num_reads::total         6811281                       # Number of read requests responded to by this memory
system.ruby.phys_mem.num_writes::cpu.data       907777                       # Number of write requests responded to by this memory
system.ruby.phys_mem.num_writes::gpu.ce           577                       # Number of write requests responded to by this memory
system.ruby.phys_mem.num_writes::gpu.shader_cores0.data          216                       # Number of write requests responded to by this memory
system.ruby.phys_mem.num_writes::gpu.shader_cores1.data          226                       # Number of write requests responded to by this memory
system.ruby.phys_mem.num_writes::gpu.shader_cores2.data          216                       # Number of write requests responded to by this memory
system.ruby.phys_mem.num_writes::gpu.shader_cores3.data          224                       # Number of write requests responded to by this memory
system.ruby.phys_mem.num_writes::total         909236                       # Number of write requests responded to by this memory
system.ruby.phys_mem.bw_read::cpu.inst     2639054009                       # Total read bandwidth from this memory (bytes/s)
system.ruby.phys_mem.bw_read::cpu.data      556428158                       # Total read bandwidth from this memory (bytes/s)
system.ruby.phys_mem.bw_read::gpu.ce          8367181                       # Total read bandwidth from this memory (bytes/s)
system.ruby.phys_mem.bw_read::gpu.shader_cores0.data      4017053                       # Total read bandwidth from this memory (bytes/s)
system.ruby.phys_mem.bw_read::gpu.shader_cores0.inst        23824                       # Total read bandwidth from this memory (bytes/s)
system.ruby.phys_mem.bw_read::gpu.shader_cores1.data      4061035                       # Total read bandwidth from this memory (bytes/s)
system.ruby.phys_mem.bw_read::gpu.shader_cores1.inst        23824                       # Total read bandwidth from this memory (bytes/s)
system.ruby.phys_mem.bw_read::gpu.shader_cores2.data      4017053                       # Total read bandwidth from this memory (bytes/s)
system.ruby.phys_mem.bw_read::gpu.shader_cores2.inst        23824                       # Total read bandwidth from this memory (bytes/s)
system.ruby.phys_mem.bw_read::gpu.shader_cores3.data      3987731                       # Total read bandwidth from this memory (bytes/s)
system.ruby.phys_mem.bw_read::gpu.shader_cores3.inst        23824                       # Total read bandwidth from this memory (bytes/s)
system.ruby.phys_mem.bw_read::total        3220027515                       # Total read bandwidth from this memory (bytes/s)
system.ruby.phys_mem.bw_inst_read::cpu.inst   2639054009                       # Instruction read bandwidth from this memory (bytes/s)
system.ruby.phys_mem.bw_inst_read::gpu.shader_cores0.inst        23824                       # Instruction read bandwidth from this memory (bytes/s)
system.ruby.phys_mem.bw_inst_read::gpu.shader_cores1.inst        23824                       # Instruction read bandwidth from this memory (bytes/s)
system.ruby.phys_mem.bw_inst_read::gpu.shader_cores2.inst        23824                       # Instruction read bandwidth from this memory (bytes/s)
system.ruby.phys_mem.bw_inst_read::gpu.shader_cores3.inst        23824                       # Instruction read bandwidth from this memory (bytes/s)
system.ruby.phys_mem.bw_inst_read::total   2639149304                       # Instruction read bandwidth from this memory (bytes/s)
system.ruby.phys_mem.bw_write::cpu.data     401291592                       # Write bandwidth from this memory (bytes/s)
system.ruby.phys_mem.bw_write::gpu.ce         8367181                       # Write bandwidth from this memory (bytes/s)
system.ruby.phys_mem.bw_write::gpu.shader_cores0.data       967611                       # Write bandwidth from this memory (bytes/s)
system.ruby.phys_mem.bw_write::gpu.shader_cores1.data       982272                       # Write bandwidth from this memory (bytes/s)
system.ruby.phys_mem.bw_write::gpu.shader_cores2.data       967611                       # Write bandwidth from this memory (bytes/s)
system.ruby.phys_mem.bw_write::gpu.shader_cores3.data       967611                       # Write bandwidth from this memory (bytes/s)
system.ruby.phys_mem.bw_write::total        413543878                       # Write bandwidth from this memory (bytes/s)
system.ruby.phys_mem.bw_total::cpu.inst    2639054009                       # Total bandwidth to/from this memory (bytes/s)
system.ruby.phys_mem.bw_total::cpu.data     957719750                       # Total bandwidth to/from this memory (bytes/s)
system.ruby.phys_mem.bw_total::gpu.ce        16734361                       # Total bandwidth to/from this memory (bytes/s)
system.ruby.phys_mem.bw_total::gpu.shader_cores0.data      4984664                       # Total bandwidth to/from this memory (bytes/s)
system.ruby.phys_mem.bw_total::gpu.shader_cores0.inst        23824                       # Total bandwidth to/from this memory (bytes/s)
system.ruby.phys_mem.bw_total::gpu.shader_cores1.data      5043307                       # Total bandwidth to/from this memory (bytes/s)
system.ruby.phys_mem.bw_total::gpu.shader_cores1.inst        23824                       # Total bandwidth to/from this memory (bytes/s)
system.ruby.phys_mem.bw_total::gpu.shader_cores2.data      4984664                       # Total bandwidth to/from this memory (bytes/s)
system.ruby.phys_mem.bw_total::gpu.shader_cores2.inst        23824                       # Total bandwidth to/from this memory (bytes/s)
system.ruby.phys_mem.bw_total::gpu.shader_cores3.data      4955343                       # Total bandwidth to/from this memory (bytes/s)
system.ruby.phys_mem.bw_total::gpu.shader_cores3.inst        23824                       # Total bandwidth to/from this memory (bytes/s)
system.ruby.phys_mem.bw_total::total       3633571393                       # Total bandwidth to/from this memory (bytes/s)
system.cpu_voltage_domain.voltage                   1                       # Voltage in Volts
system.cpu_clk_domain.clock                       500                       # Clock period in ticks
system.cpu.dstage2_mmu.stage2_tlb.walker.walks            0                       # Table walker walks requested
system.cpu.dstage2_mmu.stage2_tlb.walker.walkRequestOrigin_Requested::Data            0                       # Table walker requests started/completed, data/inst
system.cpu.dstage2_mmu.stage2_tlb.walker.walkRequestOrigin_Requested::Inst            0                       # Table walker requests started/completed, data/inst
system.cpu.dstage2_mmu.stage2_tlb.walker.walkRequestOrigin_Requested::total            0                       # Table walker requests started/completed, data/inst
system.cpu.dstage2_mmu.stage2_tlb.walker.walkRequestOrigin_Completed::Data            0                       # Table walker requests started/completed, data/inst
system.cpu.dstage2_mmu.stage2_tlb.walker.walkRequestOrigin_Completed::Inst            0                       # Table walker requests started/completed, data/inst
system.cpu.dstage2_mmu.stage2_tlb.walker.walkRequestOrigin_Completed::total            0                       # Table walker requests started/completed, data/inst
system.cpu.dstage2_mmu.stage2_tlb.walker.walkRequestOrigin::total            0                       # Table walker requests started/completed, data/inst
system.cpu.dstage2_mmu.stage2_tlb.inst_hits            0                       # ITB inst hits
system.cpu.dstage2_mmu.stage2_tlb.inst_misses            0                       # ITB inst misses
system.cpu.dstage2_mmu.stage2_tlb.read_hits            0                       # DTB read hits
system.cpu.dstage2_mmu.stage2_tlb.read_misses            0                       # DTB read misses
system.cpu.dstage2_mmu.stage2_tlb.write_hits            0                       # DTB write hits
system.cpu.dstage2_mmu.stage2_tlb.write_misses            0                       # DTB write misses
system.cpu.dstage2_mmu.stage2_tlb.flush_tlb            0                       # Number of times complete TLB was flushed
system.cpu.dstage2_mmu.stage2_tlb.flush_tlb_mva            0                       # Number of times TLB was flushed by MVA
system.cpu.dstage2_mmu.stage2_tlb.flush_tlb_mva_asid            0                       # Number of times TLB was flushed by MVA & ASID
system.cpu.dstage2_mmu.stage2_tlb.flush_tlb_asid            0                       # Number of times TLB was flushed by ASID
system.cpu.dstage2_mmu.stage2_tlb.flush_entries            0                       # Number of entries that have been flushed from TLB
system.cpu.dstage2_mmu.stage2_tlb.align_faults            0                       # Number of TLB faults due to alignment restrictions
system.cpu.dstage2_mmu.stage2_tlb.prefetch_faults            0                       # Number of TLB faults due to prefetch
system.cpu.dstage2_mmu.stage2_tlb.domain_faults            0                       # Number of TLB faults due to domain restrictions
system.cpu.dstage2_mmu.stage2_tlb.perms_faults            0                       # Number of TLB faults due to permissions restrictions
system.cpu.dstage2_mmu.stage2_tlb.read_accesses            0                       # DTB read accesses
system.cpu.dstage2_mmu.stage2_tlb.write_accesses            0                       # DTB write accesses
system.cpu.dstage2_mmu.stage2_tlb.inst_accesses            0                       # ITB inst accesses
system.cpu.dstage2_mmu.stage2_tlb.hits              0                       # DTB hits
system.cpu.dstage2_mmu.stage2_tlb.misses            0                       # DTB misses
system.cpu.dstage2_mmu.stage2_tlb.accesses            0                       # DTB accesses
system.cpu.dtb.walker.walks                         0                       # Table walker walks requested
system.cpu.dtb.walker.walkRequestOrigin_Requested::Data            0                       # Table walker requests started/completed, data/inst
system.cpu.dtb.walker.walkRequestOrigin_Requested::Inst            0                       # Table walker requests started/completed, data/inst
system.cpu.dtb.walker.walkRequestOrigin_Requested::total            0                       # Table walker requests started/completed, data/inst
system.cpu.dtb.walker.walkRequestOrigin_Completed::Data            0                       # Table walker requests started/completed, data/inst
system.cpu.dtb.walker.walkRequestOrigin_Completed::Inst            0                       # Table walker requests started/completed, data/inst
system.cpu.dtb.walker.walkRequestOrigin_Completed::total            0                       # Table walker requests started/completed, data/inst
system.cpu.dtb.walker.walkRequestOrigin::total            0                       # Table walker requests started/completed, data/inst
system.cpu.dtb.inst_hits                            0                       # ITB inst hits
system.cpu.dtb.inst_misses                          0                       # ITB inst misses
system.cpu.dtb.read_hits                            0                       # DTB read hits
system.cpu.dtb.read_misses                          0                       # DTB read misses
system.cpu.dtb.write_hits                           0                       # DTB write hits
system.cpu.dtb.write_misses                         0                       # DTB write misses
system.cpu.dtb.flush_tlb                            0                       # Number of times complete TLB was flushed
system.cpu.dtb.flush_tlb_mva                        0                       # Number of times TLB was flushed by MVA
system.cpu.dtb.flush_tlb_mva_asid                   0                       # Number of times TLB was flushed by MVA & ASID
system.cpu.dtb.flush_tlb_asid                       0                       # Number of times TLB was flushed by ASID
system.cpu.dtb.flush_entries                        0                       # Number of entries that have been flushed from TLB
system.cpu.dtb.align_faults                         0                       # Number of TLB faults due to alignment restrictions
system.cpu.dtb.prefetch_faults                      0                       # Number of TLB faults due to prefetch
system.cpu.dtb.domain_faults                        0                       # Number of TLB faults due to domain restrictions
system.cpu.dtb.perms_faults                         0                       # Number of TLB faults due to permissions restrictions
system.cpu.dtb.read_accesses                        0                       # DTB read accesses
system.cpu.dtb.write_accesses                       0                       # DTB write accesses
system.cpu.dtb.inst_accesses                        0                       # ITB inst accesses
system.cpu.dtb.hits                                 0                       # DTB hits
system.cpu.dtb.misses                               0                       # DTB misses
system.cpu.dtb.accesses                             0                       # DTB accesses
system.cpu.istage2_mmu.stage2_tlb.walker.walks            0                       # Table walker walks requested
system.cpu.istage2_mmu.stage2_tlb.walker.walkRequestOrigin_Requested::Data            0                       # Table walker requests started/completed, data/inst
system.cpu.istage2_mmu.stage2_tlb.walker.walkRequestOrigin_Requested::Inst            0                       # Table walker requests started/completed, data/inst
system.cpu.istage2_mmu.stage2_tlb.walker.walkRequestOrigin_Requested::total            0                       # Table walker requests started/completed, data/inst
system.cpu.istage2_mmu.stage2_tlb.walker.walkRequestOrigin_Completed::Data            0                       # Table walker requests started/completed, data/inst
system.cpu.istage2_mmu.stage2_tlb.walker.walkRequestOrigin_Completed::Inst            0                       # Table walker requests started/completed, data/inst
system.cpu.istage2_mmu.stage2_tlb.walker.walkRequestOrigin_Completed::total            0                       # Table walker requests started/completed, data/inst
system.cpu.istage2_mmu.stage2_tlb.walker.walkRequestOrigin::total            0                       # Table walker requests started/completed, data/inst
system.cpu.istage2_mmu.stage2_tlb.inst_hits            0                       # ITB inst hits
system.cpu.istage2_mmu.stage2_tlb.inst_misses            0                       # ITB inst misses
system.cpu.istage2_mmu.stage2_tlb.read_hits            0                       # DTB read hits
system.cpu.istage2_mmu.stage2_tlb.read_misses            0                       # DTB read misses
system.cpu.istage2_mmu.stage2_tlb.write_hits            0                       # DTB write hits
system.cpu.istage2_mmu.stage2_tlb.write_misses            0                       # DTB write misses
system.cpu.istage2_mmu.stage2_tlb.flush_tlb            0                       # Number of times complete TLB was flushed
system.cpu.istage2_mmu.stage2_tlb.flush_tlb_mva            0                       # Number of times TLB was flushed by MVA
system.cpu.istage2_mmu.stage2_tlb.flush_tlb_mva_asid            0                       # Number of times TLB was flushed by MVA & ASID
system.cpu.istage2_mmu.stage2_tlb.flush_tlb_asid            0                       # Number of times TLB was flushed by ASID
system.cpu.istage2_mmu.stage2_tlb.flush_entries            0                       # Number of entries that have been flushed from TLB
system.cpu.istage2_mmu.stage2_tlb.align_faults            0                       # Number of TLB faults due to alignment restrictions
system.cpu.istage2_mmu.stage2_tlb.prefetch_faults            0                       # Number of TLB faults due to prefetch
system.cpu.istage2_mmu.stage2_tlb.domain_faults            0                       # Number of TLB faults due to domain restrictions
system.cpu.istage2_mmu.stage2_tlb.perms_faults            0                       # Number of TLB faults due to permissions restrictions
system.cpu.istage2_mmu.stage2_tlb.read_accesses            0                       # DTB read accesses
system.cpu.istage2_mmu.stage2_tlb.write_accesses            0                       # DTB write accesses
system.cpu.istage2_mmu.stage2_tlb.inst_accesses            0                       # ITB inst accesses
system.cpu.istage2_mmu.stage2_tlb.hits              0                       # DTB hits
system.cpu.istage2_mmu.stage2_tlb.misses            0                       # DTB misses
system.cpu.istage2_mmu.stage2_tlb.accesses            0                       # DTB accesses
system.cpu.itb.walker.walks                         0                       # Table walker walks requested
system.cpu.itb.walker.walkRequestOrigin_Requested::Data            0                       # Table walker requests started/completed, data/inst
system.cpu.itb.walker.walkRequestOrigin_Requested::Inst            0                       # Table walker requests started/completed, data/inst
system.cpu.itb.walker.walkRequestOrigin_Requested::total            0                       # Table walker requests started/completed, data/inst
system.cpu.itb.walker.walkRequestOrigin_Completed::Data            0                       # Table walker requests started/completed, data/inst
system.cpu.itb.walker.walkRequestOrigin_Completed::Inst            0                       # Table walker requests started/completed, data/inst
system.cpu.itb.walker.walkRequestOrigin_Completed::total            0                       # Table walker requests started/completed, data/inst
system.cpu.itb.walker.walkRequestOrigin::total            0                       # Table walker requests started/completed, data/inst
system.cpu.itb.inst_hits                            0                       # ITB inst hits
system.cpu.itb.inst_misses                          0                       # ITB inst misses
system.cpu.itb.read_hits                            0                       # DTB read hits
system.cpu.itb.read_misses                          0                       # DTB read misses
system.cpu.itb.write_hits                           0                       # DTB write hits
system.cpu.itb.write_misses                         0                       # DTB write misses
system.cpu.itb.flush_tlb                            0                       # Number of times complete TLB was flushed
system.cpu.itb.flush_tlb_mva                        0                       # Number of times TLB was flushed by MVA
system.cpu.itb.flush_tlb_mva_asid                   0                       # Number of times TLB was flushed by MVA & ASID
system.cpu.itb.flush_tlb_asid                       0                       # Number of times TLB was flushed by ASID
system.cpu.itb.flush_entries                        0                       # Number of entries that have been flushed from TLB
system.cpu.itb.align_faults                         0                       # Number of TLB faults due to alignment restrictions
system.cpu.itb.prefetch_faults                      0                       # Number of TLB faults due to prefetch
system.cpu.itb.domain_faults                        0                       # Number of TLB faults due to domain restrictions
system.cpu.itb.perms_faults                         0                       # Number of TLB faults due to permissions restrictions
system.cpu.itb.read_accesses                        0                       # DTB read accesses
system.cpu.itb.write_accesses                       0                       # DTB write accesses
system.cpu.itb.inst_accesses                        0                       # ITB inst accesses
system.cpu.itb.hits                                 0                       # DTB hits
system.cpu.itb.misses                               0                       # DTB misses
system.cpu.itb.accesses                             0                       # DTB accesses
system.cpu.workload.num_syscalls                   46                       # Number of system calls
system.cpu.numCycles                         17461557                       # number of cpu cycles simulated
system.cpu.numWorkItemsStarted                      1                       # number of work items this cpu started
system.cpu.numWorkItemsCompleted                    1                       # number of work items this cpu completed
system.cpu.committedInsts                     5018699                       # Number of instructions committed
system.cpu.committedOps                       5848835                       # Number of ops (including micro ops) committed
system.cpu.num_int_alu_accesses               5001382                       # Number of integer alu accesses
system.cpu.num_fp_alu_accesses                  59932                       # Number of float alu accesses
system.cpu.num_func_calls                      195242                       # number of times a function call or return occured
system.cpu.num_conditional_control_insts       760885                       # number of instructions that are conditional controls
system.cpu.num_int_insts                      5001382                       # number of integer instructions
system.cpu.num_fp_insts                         59932                       # number of float instructions
system.cpu.num_int_register_reads             8779012                       # number of times the integer registers were read
system.cpu.num_int_register_writes            3379425                       # number of times the integer registers were written
system.cpu.num_fp_register_reads                67568                       # number of times the floating registers were read
system.cpu.num_fp_register_writes               47263                       # number of times the floating registers were written
system.cpu.num_cc_register_reads             20757872                       # number of times the CC registers were read
system.cpu.num_cc_register_writes             2988938                       # number of times the CC registers were written
system.cpu.num_mem_refs                       2038177                       # number of memory refs
system.cpu.num_load_insts                     1058395                       # Number of load instructions
system.cpu.num_store_insts                     979782                       # Number of store instructions
system.cpu.num_idle_cycles               76614.609991                       # Number of idle cycles
system.cpu.num_busy_cycles               17384942.390009                       # Number of busy cycles
system.cpu.not_idle_fraction                 0.995612                       # Percentage of non-idle cycles
system.cpu.idle_fraction                     0.004388                       # Percentage of idle cycles
system.cpu.Branches                           1037691                       # Number of branches fetched
system.cpu.op_class::No_OpClass                     0      0.00%      0.00% # Class of executed instruction
system.cpu.op_class::IntAlu                   3822851     64.46%     64.46% # Class of executed instruction
system.cpu.op_class::IntMult                    35530      0.60%     65.06% # Class of executed instruction
system.cpu.op_class::IntDiv                         0      0.00%     65.06% # Class of executed instruction
system.cpu.op_class::FloatAdd                       0      0.00%     65.06% # Class of executed instruction
system.cpu.op_class::FloatCmp                       0      0.00%     65.06% # Class of executed instruction
system.cpu.op_class::FloatCvt                       0      0.00%     65.06% # Class of executed instruction
system.cpu.op_class::FloatMult                      0      0.00%     65.06% # Class of executed instruction
system.cpu.op_class::FloatDiv                       0      0.00%     65.06% # Class of executed instruction
system.cpu.op_class::FloatSqrt                      0      0.00%     65.06% # Class of executed instruction
system.cpu.op_class::SimdAdd                        0      0.00%     65.06% # Class of executed instruction
system.cpu.op_class::SimdAddAcc                     0      0.00%     65.06% # Class of executed instruction
system.cpu.op_class::SimdAlu                        0      0.00%     65.06% # Class of executed instruction
system.cpu.op_class::SimdCmp                        0      0.00%     65.06% # Class of executed instruction
system.cpu.op_class::SimdCvt                        0      0.00%     65.06% # Class of executed instruction
system.cpu.op_class::SimdMisc                       0      0.00%     65.06% # Class of executed instruction
system.cpu.op_class::SimdMult                       0      0.00%     65.06% # Class of executed instruction
system.cpu.op_class::SimdMultAcc                    0      0.00%     65.06% # Class of executed instruction
system.cpu.op_class::SimdShift                      0      0.00%     65.06% # Class of executed instruction
system.cpu.op_class::SimdShiftAcc                   0      0.00%     65.06% # Class of executed instruction
system.cpu.op_class::SimdSqrt                       0      0.00%     65.06% # Class of executed instruction
system.cpu.op_class::SimdFloatAdd                 412      0.01%     65.07% # Class of executed instruction
system.cpu.op_class::SimdFloatAlu                   0      0.00%     65.07% # Class of executed instruction
system.cpu.op_class::SimdFloatCmp                  83      0.00%     65.07% # Class of executed instruction
system.cpu.op_class::SimdFloatCvt                6964      0.12%     65.18% # Class of executed instruction
system.cpu.op_class::SimdFloatDiv                  18      0.00%     65.18% # Class of executed instruction
system.cpu.op_class::SimdFloatMisc              21749      0.37%     65.55% # Class of executed instruction
system.cpu.op_class::SimdFloatMult               4747      0.08%     65.63% # Class of executed instruction
system.cpu.op_class::SimdFloatMultAcc             140      0.00%     65.63% # Class of executed instruction
system.cpu.op_class::SimdFloatSqrt                  0      0.00%     65.63% # Class of executed instruction
system.cpu.op_class::MemRead                  1058395     17.85%     83.48% # Class of executed instruction
system.cpu.op_class::MemWrite                  979782     16.52%    100.00% # Class of executed instruction
system.cpu.op_class::IprAccess                      0      0.00%    100.00% # Class of executed instruction
system.cpu.op_class::InstPrefetch                   0      0.00%    100.00% # Class of executed instruction
system.cpu.op_class::total                    5930671                       # Class of executed instruction
system.gpu.clk_domain.voltage_domain.voltage            1                       # Voltage in Volts
system.gpu.clk_domain.clock                      1429                       # Clock period in ticks
system.gpu.dram_wrapper.clk_domain.clock          541                       # Clock period in ticks
system.gpu.icnt_wrapper.clk_domain.clock         2858                       # Clock period in ticks
system.ruby.delayHist::bucket_size                 32                       # delay histogram for all message
system.ruby.delayHist::max_bucket                 319                       # delay histogram for all message
system.ruby.delayHist::samples                  23071                       # delay histogram for all message
system.ruby.delayHist::mean                  1.100472                       # delay histogram for all message
system.ruby.delayHist::stdev                 8.957684                       # delay histogram for all message
system.ruby.delayHist                    |       22904     99.28%     99.28% |         106      0.46%     99.74% |          11      0.05%     99.78% |          10      0.04%     99.83% |          15      0.07%     99.89% |          11      0.05%     99.94% |           9      0.04%     99.98% |           3      0.01%     99.99% |           2      0.01%    100.00% |           0      0.00%    100.00% # delay histogram for all message
system.ruby.delayHist::total                    23071                       # delay histogram for all message
system.ruby.outstanding_req_hist::bucket_size            8                      
system.ruby.outstanding_req_hist::max_bucket           79                      
system.ruby.outstanding_req_hist::samples      7720518                      
system.ruby.outstanding_req_hist::mean       1.010446                      
system.ruby.outstanding_req_hist::gmean      1.001078                      
system.ruby.outstanding_req_hist::stdev      0.723136                      
system.ruby.outstanding_req_hist         |     7718653     99.98%     99.98% |         211      0.00%     99.98% |         263      0.00%     99.98% |         278      0.00%     99.99% |         192      0.00%     99.99% |          37      0.00%     99.99% |          36      0.00%     99.99% |          51      0.00%     99.99% |         797      0.01%    100.00% |           0      0.00%    100.00%
system.ruby.outstanding_req_hist::total       7720518                      
system.ruby.latency_hist::bucket_size             256                      
system.ruby.latency_hist::max_bucket             2559                      
system.ruby.latency_hist::samples             7720517                      
system.ruby.latency_hist::mean               1.481264                      
system.ruby.latency_hist::gmean              1.008398                      
system.ruby.latency_hist::stdev             18.676953                      
system.ruby.latency_hist                 |     7719020     99.98%     99.98% |         205      0.00%     99.98% |         152      0.00%     99.99% |         181      0.00%     99.99% |         215      0.00%     99.99% |         387      0.01%    100.00% |         325      0.00%    100.00% |          29      0.00%    100.00% |           3      0.00%    100.00% |           0      0.00%    100.00%
system.ruby.latency_hist::total               7720517                      
system.ruby.hit_latency_hist::bucket_size            1                      
system.ruby.hit_latency_hist::max_bucket            9                      
system.ruby.hit_latency_hist::samples         7708666                      
system.ruby.hit_latency_hist::mean                  1                      
system.ruby.hit_latency_hist::gmean                 1                      
system.ruby.hit_latency_hist             |           0      0.00%      0.00% |     7708666    100.00%    100.00% |           0      0.00%    100.00% |           0      0.00%    100.00% |           0      0.00%    100.00% |           0      0.00%    100.00% |           0      0.00%    100.00% |           0      0.00%    100.00% |           0      0.00%    100.00% |           0      0.00%    100.00%
system.ruby.hit_latency_hist::total           7708666                      
system.ruby.miss_latency_hist::bucket_size          256                      
system.ruby.miss_latency_hist::max_bucket         2559                      
system.ruby.miss_latency_hist::samples          11851                      
system.ruby.miss_latency_hist::mean        314.526622                      
system.ruby.miss_latency_hist::gmean       232.362704                      
system.ruby.miss_latency_hist::stdev       359.322390                      
system.ruby.miss_latency_hist            |       10354     87.37%     87.37% |         205      1.73%     89.10% |         152      1.28%     90.38% |         181      1.53%     91.91% |         215      1.81%     93.72% |         387      3.27%     96.99% |         325      2.74%     99.73% |          29      0.24%     99.97% |           3      0.03%    100.00% |           0      0.00%    100.00%
system.ruby.miss_latency_hist::total            11851                      
system.ruby.L1Cache.incomplete_times             1088                      
system.ruby.Directory.incomplete_times          10762                      
system.gpu.shader_mmu.pagewalkers00.walker.walks            0                       # Table walker walks requested
system.gpu.shader_mmu.pagewalkers00.walker.walkRequestOrigin_Requested::Data            0                       # Table walker requests started/completed, data/inst
system.gpu.shader_mmu.pagewalkers00.walker.walkRequestOrigin_Requested::Inst            0                       # Table walker requests started/completed, data/inst
system.gpu.shader_mmu.pagewalkers00.walker.walkRequestOrigin_Requested::total            0                       # Table walker requests started/completed, data/inst
system.gpu.shader_mmu.pagewalkers00.walker.walkRequestOrigin_Completed::Data            0                       # Table walker requests started/completed, data/inst
system.gpu.shader_mmu.pagewalkers00.walker.walkRequestOrigin_Completed::Inst            0                       # Table walker requests started/completed, data/inst
system.gpu.shader_mmu.pagewalkers00.walker.walkRequestOrigin_Completed::total            0                       # Table walker requests started/completed, data/inst
system.gpu.shader_mmu.pagewalkers00.walker.walkRequestOrigin::total            0                       # Table walker requests started/completed, data/inst
system.gpu.shader_mmu.pagewalkers00.inst_hits            0                       # ITB inst hits
system.gpu.shader_mmu.pagewalkers00.inst_misses            0                       # ITB inst misses
system.gpu.shader_mmu.pagewalkers00.read_hits            0                       # DTB read hits
system.gpu.shader_mmu.pagewalkers00.read_misses            0                       # DTB read misses
system.gpu.shader_mmu.pagewalkers00.write_hits            0                       # DTB write hits
system.gpu.shader_mmu.pagewalkers00.write_misses            0                       # DTB write misses
system.gpu.shader_mmu.pagewalkers00.flush_tlb            0                       # Number of times complete TLB was flushed
system.gpu.shader_mmu.pagewalkers00.flush_tlb_mva            0                       # Number of times TLB was flushed by MVA
system.gpu.shader_mmu.pagewalkers00.flush_tlb_mva_asid            0                       # Number of times TLB was flushed by MVA & ASID
system.gpu.shader_mmu.pagewalkers00.flush_tlb_asid            0                       # Number of times TLB was flushed by ASID
system.gpu.shader_mmu.pagewalkers00.flush_entries            0                       # Number of entries that have been flushed from TLB
system.gpu.shader_mmu.pagewalkers00.align_faults            0                       # Number of TLB faults due to alignment restrictions
system.gpu.shader_mmu.pagewalkers00.prefetch_faults            0                       # Number of TLB faults due to prefetch
system.gpu.shader_mmu.pagewalkers00.domain_faults            0                       # Number of TLB faults due to domain restrictions
system.gpu.shader_mmu.pagewalkers00.perms_faults            0                       # Number of TLB faults due to permissions restrictions
system.gpu.shader_mmu.pagewalkers00.read_accesses            0                       # DTB read accesses
system.gpu.shader_mmu.pagewalkers00.write_accesses            0                       # DTB write accesses
system.gpu.shader_mmu.pagewalkers00.inst_accesses            0                       # ITB inst accesses
system.gpu.shader_mmu.pagewalkers00.hits            0                       # DTB hits
system.gpu.shader_mmu.pagewalkers00.misses            0                       # DTB misses
system.gpu.shader_mmu.pagewalkers00.accesses            0                       # DTB accesses
system.gpu.shader_mmu.pagewalkers01.walker.walks            0                       # Table walker walks requested
system.gpu.shader_mmu.pagewalkers01.walker.walkRequestOrigin_Requested::Data            0                       # Table walker requests started/completed, data/inst
system.gpu.shader_mmu.pagewalkers01.walker.walkRequestOrigin_Requested::Inst            0                       # Table walker requests started/completed, data/inst
system.gpu.shader_mmu.pagewalkers01.walker.walkRequestOrigin_Requested::total            0                       # Table walker requests started/completed, data/inst
system.gpu.shader_mmu.pagewalkers01.walker.walkRequestOrigin_Completed::Data            0                       # Table walker requests started/completed, data/inst
system.gpu.shader_mmu.pagewalkers01.walker.walkRequestOrigin_Completed::Inst            0                       # Table walker requests started/completed, data/inst
system.gpu.shader_mmu.pagewalkers01.walker.walkRequestOrigin_Completed::total            0                       # Table walker requests started/completed, data/inst
system.gpu.shader_mmu.pagewalkers01.walker.walkRequestOrigin::total            0                       # Table walker requests started/completed, data/inst
system.gpu.shader_mmu.pagewalkers01.inst_hits            0                       # ITB inst hits
system.gpu.shader_mmu.pagewalkers01.inst_misses            0                       # ITB inst misses
system.gpu.shader_mmu.pagewalkers01.read_hits            0                       # DTB read hits
system.gpu.shader_mmu.pagewalkers01.read_misses            0                       # DTB read misses
system.gpu.shader_mmu.pagewalkers01.write_hits            0                       # DTB write hits
system.gpu.shader_mmu.pagewalkers01.write_misses            0                       # DTB write misses
system.gpu.shader_mmu.pagewalkers01.flush_tlb            0                       # Number of times complete TLB was flushed
system.gpu.shader_mmu.pagewalkers01.flush_tlb_mva            0                       # Number of times TLB was flushed by MVA
system.gpu.shader_mmu.pagewalkers01.flush_tlb_mva_asid            0                       # Number of times TLB was flushed by MVA & ASID
system.gpu.shader_mmu.pagewalkers01.flush_tlb_asid            0                       # Number of times TLB was flushed by ASID
system.gpu.shader_mmu.pagewalkers01.flush_entries            0                       # Number of entries that have been flushed from TLB
system.gpu.shader_mmu.pagewalkers01.align_faults            0                       # Number of TLB faults due to alignment restrictions
system.gpu.shader_mmu.pagewalkers01.prefetch_faults            0                       # Number of TLB faults due to prefetch
system.gpu.shader_mmu.pagewalkers01.domain_faults            0                       # Number of TLB faults due to domain restrictions
system.gpu.shader_mmu.pagewalkers01.perms_faults            0                       # Number of TLB faults due to permissions restrictions
system.gpu.shader_mmu.pagewalkers01.read_accesses            0                       # DTB read accesses
system.gpu.shader_mmu.pagewalkers01.write_accesses            0                       # DTB write accesses
system.gpu.shader_mmu.pagewalkers01.inst_accesses            0                       # ITB inst accesses
system.gpu.shader_mmu.pagewalkers01.hits            0                       # DTB hits
system.gpu.shader_mmu.pagewalkers01.misses            0                       # DTB misses
system.gpu.shader_mmu.pagewalkers01.accesses            0                       # DTB accesses
system.gpu.shader_mmu.pagewalkers02.walker.walks            0                       # Table walker walks requested
system.gpu.shader_mmu.pagewalkers02.walker.walkRequestOrigin_Requested::Data            0                       # Table walker requests started/completed, data/inst
system.gpu.shader_mmu.pagewalkers02.walker.walkRequestOrigin_Requested::Inst            0                       # Table walker requests started/completed, data/inst
system.gpu.shader_mmu.pagewalkers02.walker.walkRequestOrigin_Requested::total            0                       # Table walker requests started/completed, data/inst
system.gpu.shader_mmu.pagewalkers02.walker.walkRequestOrigin_Completed::Data            0                       # Table walker requests started/completed, data/inst
system.gpu.shader_mmu.pagewalkers02.walker.walkRequestOrigin_Completed::Inst            0                       # Table walker requests started/completed, data/inst
system.gpu.shader_mmu.pagewalkers02.walker.walkRequestOrigin_Completed::total            0                       # Table walker requests started/completed, data/inst
system.gpu.shader_mmu.pagewalkers02.walker.walkRequestOrigin::total            0                       # Table walker requests started/completed, data/inst
system.gpu.shader_mmu.pagewalkers02.inst_hits            0                       # ITB inst hits
system.gpu.shader_mmu.pagewalkers02.inst_misses            0                       # ITB inst misses
system.gpu.shader_mmu.pagewalkers02.read_hits            0                       # DTB read hits
system.gpu.shader_mmu.pagewalkers02.read_misses            0                       # DTB read misses
system.gpu.shader_mmu.pagewalkers02.write_hits            0                       # DTB write hits
system.gpu.shader_mmu.pagewalkers02.write_misses            0                       # DTB write misses
system.gpu.shader_mmu.pagewalkers02.flush_tlb            0                       # Number of times complete TLB was flushed
system.gpu.shader_mmu.pagewalkers02.flush_tlb_mva            0                       # Number of times TLB was flushed by MVA
system.gpu.shader_mmu.pagewalkers02.flush_tlb_mva_asid            0                       # Number of times TLB was flushed by MVA & ASID
system.gpu.shader_mmu.pagewalkers02.flush_tlb_asid            0                       # Number of times TLB was flushed by ASID
system.gpu.shader_mmu.pagewalkers02.flush_entries            0                       # Number of entries that have been flushed from TLB
system.gpu.shader_mmu.pagewalkers02.align_faults            0                       # Number of TLB faults due to alignment restrictions
system.gpu.shader_mmu.pagewalkers02.prefetch_faults            0                       # Number of TLB faults due to prefetch
system.gpu.shader_mmu.pagewalkers02.domain_faults            0                       # Number of TLB faults due to domain restrictions
system.gpu.shader_mmu.pagewalkers02.perms_faults            0                       # Number of TLB faults due to permissions restrictions
system.gpu.shader_mmu.pagewalkers02.read_accesses            0                       # DTB read accesses
system.gpu.shader_mmu.pagewalkers02.write_accesses            0                       # DTB write accesses
system.gpu.shader_mmu.pagewalkers02.inst_accesses            0                       # ITB inst accesses
system.gpu.shader_mmu.pagewalkers02.hits            0                       # DTB hits
system.gpu.shader_mmu.pagewalkers02.misses            0                       # DTB misses
system.gpu.shader_mmu.pagewalkers02.accesses            0                       # DTB accesses
system.gpu.shader_mmu.pagewalkers03.walker.walks            0                       # Table walker walks requested
system.gpu.shader_mmu.pagewalkers03.walker.walkRequestOrigin_Requested::Data            0                       # Table walker requests started/completed, data/inst
system.gpu.shader_mmu.pagewalkers03.walker.walkRequestOrigin_Requested::Inst            0                       # Table walker requests started/completed, data/inst
system.gpu.shader_mmu.pagewalkers03.walker.walkRequestOrigin_Requested::total            0                       # Table walker requests started/completed, data/inst
system.gpu.shader_mmu.pagewalkers03.walker.walkRequestOrigin_Completed::Data            0                       # Table walker requests started/completed, data/inst
system.gpu.shader_mmu.pagewalkers03.walker.walkRequestOrigin_Completed::Inst            0                       # Table walker requests started/completed, data/inst
system.gpu.shader_mmu.pagewalkers03.walker.walkRequestOrigin_Completed::total            0                       # Table walker requests started/completed, data/inst
system.gpu.shader_mmu.pagewalkers03.walker.walkRequestOrigin::total            0                       # Table walker requests started/completed, data/inst
system.gpu.shader_mmu.pagewalkers03.inst_hits            0                       # ITB inst hits
system.gpu.shader_mmu.pagewalkers03.inst_misses            0                       # ITB inst misses
system.gpu.shader_mmu.pagewalkers03.read_hits            0                       # DTB read hits
system.gpu.shader_mmu.pagewalkers03.read_misses            0                       # DTB read misses
system.gpu.shader_mmu.pagewalkers03.write_hits            0                       # DTB write hits
system.gpu.shader_mmu.pagewalkers03.write_misses            0                       # DTB write misses
system.gpu.shader_mmu.pagewalkers03.flush_tlb            0                       # Number of times complete TLB was flushed
system.gpu.shader_mmu.pagewalkers03.flush_tlb_mva            0                       # Number of times TLB was flushed by MVA
system.gpu.shader_mmu.pagewalkers03.flush_tlb_mva_asid            0                       # Number of times TLB was flushed by MVA & ASID
system.gpu.shader_mmu.pagewalkers03.flush_tlb_asid            0                       # Number of times TLB was flushed by ASID
system.gpu.shader_mmu.pagewalkers03.flush_entries            0                       # Number of entries that have been flushed from TLB
system.gpu.shader_mmu.pagewalkers03.align_faults            0                       # Number of TLB faults due to alignment restrictions
system.gpu.shader_mmu.pagewalkers03.prefetch_faults            0                       # Number of TLB faults due to prefetch
system.gpu.shader_mmu.pagewalkers03.domain_faults            0                       # Number of TLB faults due to domain restrictions
system.gpu.shader_mmu.pagewalkers03.perms_faults            0                       # Number of TLB faults due to permissions restrictions
system.gpu.shader_mmu.pagewalkers03.read_accesses            0                       # DTB read accesses
system.gpu.shader_mmu.pagewalkers03.write_accesses            0                       # DTB write accesses
system.gpu.shader_mmu.pagewalkers03.inst_accesses            0                       # ITB inst accesses
system.gpu.shader_mmu.pagewalkers03.hits            0                       # DTB hits
system.gpu.shader_mmu.pagewalkers03.misses            0                       # DTB misses
system.gpu.shader_mmu.pagewalkers03.accesses            0                       # DTB accesses
system.gpu.shader_mmu.pagewalkers04.walker.walks            0                       # Table walker walks requested
system.gpu.shader_mmu.pagewalkers04.walker.walkRequestOrigin_Requested::Data            0                       # Table walker requests started/completed, data/inst
system.gpu.shader_mmu.pagewalkers04.walker.walkRequestOrigin_Requested::Inst            0                       # Table walker requests started/completed, data/inst
system.gpu.shader_mmu.pagewalkers04.walker.walkRequestOrigin_Requested::total            0                       # Table walker requests started/completed, data/inst
system.gpu.shader_mmu.pagewalkers04.walker.walkRequestOrigin_Completed::Data            0                       # Table walker requests started/completed, data/inst
system.gpu.shader_mmu.pagewalkers04.walker.walkRequestOrigin_Completed::Inst            0                       # Table walker requests started/completed, data/inst
system.gpu.shader_mmu.pagewalkers04.walker.walkRequestOrigin_Completed::total            0                       # Table walker requests started/completed, data/inst
system.gpu.shader_mmu.pagewalkers04.walker.walkRequestOrigin::total            0                       # Table walker requests started/completed, data/inst
system.gpu.shader_mmu.pagewalkers04.inst_hits            0                       # ITB inst hits
system.gpu.shader_mmu.pagewalkers04.inst_misses            0                       # ITB inst misses
system.gpu.shader_mmu.pagewalkers04.read_hits            0                       # DTB read hits
system.gpu.shader_mmu.pagewalkers04.read_misses            0                       # DTB read misses
system.gpu.shader_mmu.pagewalkers04.write_hits            0                       # DTB write hits
system.gpu.shader_mmu.pagewalkers04.write_misses            0                       # DTB write misses
system.gpu.shader_mmu.pagewalkers04.flush_tlb            0                       # Number of times complete TLB was flushed
system.gpu.shader_mmu.pagewalkers04.flush_tlb_mva            0                       # Number of times TLB was flushed by MVA
system.gpu.shader_mmu.pagewalkers04.flush_tlb_mva_asid            0                       # Number of times TLB was flushed by MVA & ASID
system.gpu.shader_mmu.pagewalkers04.flush_tlb_asid            0                       # Number of times TLB was flushed by ASID
system.gpu.shader_mmu.pagewalkers04.flush_entries            0                       # Number of entries that have been flushed from TLB
system.gpu.shader_mmu.pagewalkers04.align_faults            0                       # Number of TLB faults due to alignment restrictions
system.gpu.shader_mmu.pagewalkers04.prefetch_faults            0                       # Number of TLB faults due to prefetch
system.gpu.shader_mmu.pagewalkers04.domain_faults            0                       # Number of TLB faults due to domain restrictions
system.gpu.shader_mmu.pagewalkers04.perms_faults            0                       # Number of TLB faults due to permissions restrictions
system.gpu.shader_mmu.pagewalkers04.read_accesses            0                       # DTB read accesses
system.gpu.shader_mmu.pagewalkers04.write_accesses            0                       # DTB write accesses
system.gpu.shader_mmu.pagewalkers04.inst_accesses            0                       # ITB inst accesses
system.gpu.shader_mmu.pagewalkers04.hits            0                       # DTB hits
system.gpu.shader_mmu.pagewalkers04.misses            0                       # DTB misses
system.gpu.shader_mmu.pagewalkers04.accesses            0                       # DTB accesses
system.gpu.shader_mmu.pagewalkers05.walker.walks            0                       # Table walker walks requested
system.gpu.shader_mmu.pagewalkers05.walker.walkRequestOrigin_Requested::Data            0                       # Table walker requests started/completed, data/inst
system.gpu.shader_mmu.pagewalkers05.walker.walkRequestOrigin_Requested::Inst            0                       # Table walker requests started/completed, data/inst
system.gpu.shader_mmu.pagewalkers05.walker.walkRequestOrigin_Requested::total            0                       # Table walker requests started/completed, data/inst
system.gpu.shader_mmu.pagewalkers05.walker.walkRequestOrigin_Completed::Data            0                       # Table walker requests started/completed, data/inst
system.gpu.shader_mmu.pagewalkers05.walker.walkRequestOrigin_Completed::Inst            0                       # Table walker requests started/completed, data/inst
system.gpu.shader_mmu.pagewalkers05.walker.walkRequestOrigin_Completed::total            0                       # Table walker requests started/completed, data/inst
system.gpu.shader_mmu.pagewalkers05.walker.walkRequestOrigin::total            0                       # Table walker requests started/completed, data/inst
system.gpu.shader_mmu.pagewalkers05.inst_hits            0                       # ITB inst hits
system.gpu.shader_mmu.pagewalkers05.inst_misses            0                       # ITB inst misses
system.gpu.shader_mmu.pagewalkers05.read_hits            0                       # DTB read hits
system.gpu.shader_mmu.pagewalkers05.read_misses            0                       # DTB read misses
system.gpu.shader_mmu.pagewalkers05.write_hits            0                       # DTB write hits
system.gpu.shader_mmu.pagewalkers05.write_misses            0                       # DTB write misses
system.gpu.shader_mmu.pagewalkers05.flush_tlb            0                       # Number of times complete TLB was flushed
system.gpu.shader_mmu.pagewalkers05.flush_tlb_mva            0                       # Number of times TLB was flushed by MVA
system.gpu.shader_mmu.pagewalkers05.flush_tlb_mva_asid            0                       # Number of times TLB was flushed by MVA & ASID
system.gpu.shader_mmu.pagewalkers05.flush_tlb_asid            0                       # Number of times TLB was flushed by ASID
system.gpu.shader_mmu.pagewalkers05.flush_entries            0                       # Number of entries that have been flushed from TLB
system.gpu.shader_mmu.pagewalkers05.align_faults            0                       # Number of TLB faults due to alignment restrictions
system.gpu.shader_mmu.pagewalkers05.prefetch_faults            0                       # Number of TLB faults due to prefetch
system.gpu.shader_mmu.pagewalkers05.domain_faults            0                       # Number of TLB faults due to domain restrictions
system.gpu.shader_mmu.pagewalkers05.perms_faults            0                       # Number of TLB faults due to permissions restrictions
system.gpu.shader_mmu.pagewalkers05.read_accesses            0                       # DTB read accesses
system.gpu.shader_mmu.pagewalkers05.write_accesses            0                       # DTB write accesses
system.gpu.shader_mmu.pagewalkers05.inst_accesses            0                       # ITB inst accesses
system.gpu.shader_mmu.pagewalkers05.hits            0                       # DTB hits
system.gpu.shader_mmu.pagewalkers05.misses            0                       # DTB misses
system.gpu.shader_mmu.pagewalkers05.accesses            0                       # DTB accesses
system.gpu.shader_mmu.pagewalkers06.walker.walks            0                       # Table walker walks requested
system.gpu.shader_mmu.pagewalkers06.walker.walkRequestOrigin_Requested::Data            0                       # Table walker requests started/completed, data/inst
system.gpu.shader_mmu.pagewalkers06.walker.walkRequestOrigin_Requested::Inst            0                       # Table walker requests started/completed, data/inst
system.gpu.shader_mmu.pagewalkers06.walker.walkRequestOrigin_Requested::total            0                       # Table walker requests started/completed, data/inst
system.gpu.shader_mmu.pagewalkers06.walker.walkRequestOrigin_Completed::Data            0                       # Table walker requests started/completed, data/inst
system.gpu.shader_mmu.pagewalkers06.walker.walkRequestOrigin_Completed::Inst            0                       # Table walker requests started/completed, data/inst
system.gpu.shader_mmu.pagewalkers06.walker.walkRequestOrigin_Completed::total            0                       # Table walker requests started/completed, data/inst
system.gpu.shader_mmu.pagewalkers06.walker.walkRequestOrigin::total            0                       # Table walker requests started/completed, data/inst
system.gpu.shader_mmu.pagewalkers06.inst_hits            0                       # ITB inst hits
system.gpu.shader_mmu.pagewalkers06.inst_misses            0                       # ITB inst misses
system.gpu.shader_mmu.pagewalkers06.read_hits            0                       # DTB read hits
system.gpu.shader_mmu.pagewalkers06.read_misses            0                       # DTB read misses
system.gpu.shader_mmu.pagewalkers06.write_hits            0                       # DTB write hits
system.gpu.shader_mmu.pagewalkers06.write_misses            0                       # DTB write misses
system.gpu.shader_mmu.pagewalkers06.flush_tlb            0                       # Number of times complete TLB was flushed
system.gpu.shader_mmu.pagewalkers06.flush_tlb_mva            0                       # Number of times TLB was flushed by MVA
system.gpu.shader_mmu.pagewalkers06.flush_tlb_mva_asid            0                       # Number of times TLB was flushed by MVA & ASID
system.gpu.shader_mmu.pagewalkers06.flush_tlb_asid            0                       # Number of times TLB was flushed by ASID
system.gpu.shader_mmu.pagewalkers06.flush_entries            0                       # Number of entries that have been flushed from TLB
system.gpu.shader_mmu.pagewalkers06.align_faults            0                       # Number of TLB faults due to alignment restrictions
system.gpu.shader_mmu.pagewalkers06.prefetch_faults            0                       # Number of TLB faults due to prefetch
system.gpu.shader_mmu.pagewalkers06.domain_faults            0                       # Number of TLB faults due to domain restrictions
system.gpu.shader_mmu.pagewalkers06.perms_faults            0                       # Number of TLB faults due to permissions restrictions
system.gpu.shader_mmu.pagewalkers06.read_accesses            0                       # DTB read accesses
system.gpu.shader_mmu.pagewalkers06.write_accesses            0                       # DTB write accesses
system.gpu.shader_mmu.pagewalkers06.inst_accesses            0                       # ITB inst accesses
system.gpu.shader_mmu.pagewalkers06.hits            0                       # DTB hits
system.gpu.shader_mmu.pagewalkers06.misses            0                       # DTB misses
system.gpu.shader_mmu.pagewalkers06.accesses            0                       # DTB accesses
system.gpu.shader_mmu.pagewalkers07.walker.walks            0                       # Table walker walks requested
system.gpu.shader_mmu.pagewalkers07.walker.walkRequestOrigin_Requested::Data            0                       # Table walker requests started/completed, data/inst
system.gpu.shader_mmu.pagewalkers07.walker.walkRequestOrigin_Requested::Inst            0                       # Table walker requests started/completed, data/inst
system.gpu.shader_mmu.pagewalkers07.walker.walkRequestOrigin_Requested::total            0                       # Table walker requests started/completed, data/inst
system.gpu.shader_mmu.pagewalkers07.walker.walkRequestOrigin_Completed::Data            0                       # Table walker requests started/completed, data/inst
system.gpu.shader_mmu.pagewalkers07.walker.walkRequestOrigin_Completed::Inst            0                       # Table walker requests started/completed, data/inst
system.gpu.shader_mmu.pagewalkers07.walker.walkRequestOrigin_Completed::total            0                       # Table walker requests started/completed, data/inst
system.gpu.shader_mmu.pagewalkers07.walker.walkRequestOrigin::total            0                       # Table walker requests started/completed, data/inst
system.gpu.shader_mmu.pagewalkers07.inst_hits            0                       # ITB inst hits
system.gpu.shader_mmu.pagewalkers07.inst_misses            0                       # ITB inst misses
system.gpu.shader_mmu.pagewalkers07.read_hits            0                       # DTB read hits
system.gpu.shader_mmu.pagewalkers07.read_misses            0                       # DTB read misses
system.gpu.shader_mmu.pagewalkers07.write_hits            0                       # DTB write hits
system.gpu.shader_mmu.pagewalkers07.write_misses            0                       # DTB write misses
system.gpu.shader_mmu.pagewalkers07.flush_tlb            0                       # Number of times complete TLB was flushed
system.gpu.shader_mmu.pagewalkers07.flush_tlb_mva            0                       # Number of times TLB was flushed by MVA
system.gpu.shader_mmu.pagewalkers07.flush_tlb_mva_asid            0                       # Number of times TLB was flushed by MVA & ASID
system.gpu.shader_mmu.pagewalkers07.flush_tlb_asid            0                       # Number of times TLB was flushed by ASID
system.gpu.shader_mmu.pagewalkers07.flush_entries            0                       # Number of entries that have been flushed from TLB
system.gpu.shader_mmu.pagewalkers07.align_faults            0                       # Number of TLB faults due to alignment restrictions
system.gpu.shader_mmu.pagewalkers07.prefetch_faults            0                       # Number of TLB faults due to prefetch
system.gpu.shader_mmu.pagewalkers07.domain_faults            0                       # Number of TLB faults due to domain restrictions
system.gpu.shader_mmu.pagewalkers07.perms_faults            0                       # Number of TLB faults due to permissions restrictions
system.gpu.shader_mmu.pagewalkers07.read_accesses            0                       # DTB read accesses
system.gpu.shader_mmu.pagewalkers07.write_accesses            0                       # DTB write accesses
system.gpu.shader_mmu.pagewalkers07.inst_accesses            0                       # ITB inst accesses
system.gpu.shader_mmu.pagewalkers07.hits            0                       # DTB hits
system.gpu.shader_mmu.pagewalkers07.misses            0                       # DTB misses
system.gpu.shader_mmu.pagewalkers07.accesses            0                       # DTB accesses
system.gpu.shader_mmu.pagewalkers08.walker.walks            0                       # Table walker walks requested
system.gpu.shader_mmu.pagewalkers08.walker.walkRequestOrigin_Requested::Data            0                       # Table walker requests started/completed, data/inst
system.gpu.shader_mmu.pagewalkers08.walker.walkRequestOrigin_Requested::Inst            0                       # Table walker requests started/completed, data/inst
system.gpu.shader_mmu.pagewalkers08.walker.walkRequestOrigin_Requested::total            0                       # Table walker requests started/completed, data/inst
system.gpu.shader_mmu.pagewalkers08.walker.walkRequestOrigin_Completed::Data            0                       # Table walker requests started/completed, data/inst
system.gpu.shader_mmu.pagewalkers08.walker.walkRequestOrigin_Completed::Inst            0                       # Table walker requests started/completed, data/inst
system.gpu.shader_mmu.pagewalkers08.walker.walkRequestOrigin_Completed::total            0                       # Table walker requests started/completed, data/inst
system.gpu.shader_mmu.pagewalkers08.walker.walkRequestOrigin::total            0                       # Table walker requests started/completed, data/inst
system.gpu.shader_mmu.pagewalkers08.inst_hits            0                       # ITB inst hits
system.gpu.shader_mmu.pagewalkers08.inst_misses            0                       # ITB inst misses
system.gpu.shader_mmu.pagewalkers08.read_hits            0                       # DTB read hits
system.gpu.shader_mmu.pagewalkers08.read_misses            0                       # DTB read misses
system.gpu.shader_mmu.pagewalkers08.write_hits            0                       # DTB write hits
system.gpu.shader_mmu.pagewalkers08.write_misses            0                       # DTB write misses
system.gpu.shader_mmu.pagewalkers08.flush_tlb            0                       # Number of times complete TLB was flushed
system.gpu.shader_mmu.pagewalkers08.flush_tlb_mva            0                       # Number of times TLB was flushed by MVA
system.gpu.shader_mmu.pagewalkers08.flush_tlb_mva_asid            0                       # Number of times TLB was flushed by MVA & ASID
system.gpu.shader_mmu.pagewalkers08.flush_tlb_asid            0                       # Number of times TLB was flushed by ASID
system.gpu.shader_mmu.pagewalkers08.flush_entries            0                       # Number of entries that have been flushed from TLB
system.gpu.shader_mmu.pagewalkers08.align_faults            0                       # Number of TLB faults due to alignment restrictions
system.gpu.shader_mmu.pagewalkers08.prefetch_faults            0                       # Number of TLB faults due to prefetch
system.gpu.shader_mmu.pagewalkers08.domain_faults            0                       # Number of TLB faults due to domain restrictions
system.gpu.shader_mmu.pagewalkers08.perms_faults            0                       # Number of TLB faults due to permissions restrictions
system.gpu.shader_mmu.pagewalkers08.read_accesses            0                       # DTB read accesses
system.gpu.shader_mmu.pagewalkers08.write_accesses            0                       # DTB write accesses
system.gpu.shader_mmu.pagewalkers08.inst_accesses            0                       # ITB inst accesses
system.gpu.shader_mmu.pagewalkers08.hits            0                       # DTB hits
system.gpu.shader_mmu.pagewalkers08.misses            0                       # DTB misses
system.gpu.shader_mmu.pagewalkers08.accesses            0                       # DTB accesses
system.gpu.shader_mmu.pagewalkers09.walker.walks            0                       # Table walker walks requested
system.gpu.shader_mmu.pagewalkers09.walker.walkRequestOrigin_Requested::Data            0                       # Table walker requests started/completed, data/inst
system.gpu.shader_mmu.pagewalkers09.walker.walkRequestOrigin_Requested::Inst            0                       # Table walker requests started/completed, data/inst
system.gpu.shader_mmu.pagewalkers09.walker.walkRequestOrigin_Requested::total            0                       # Table walker requests started/completed, data/inst
system.gpu.shader_mmu.pagewalkers09.walker.walkRequestOrigin_Completed::Data            0                       # Table walker requests started/completed, data/inst
system.gpu.shader_mmu.pagewalkers09.walker.walkRequestOrigin_Completed::Inst            0                       # Table walker requests started/completed, data/inst
system.gpu.shader_mmu.pagewalkers09.walker.walkRequestOrigin_Completed::total            0                       # Table walker requests started/completed, data/inst
system.gpu.shader_mmu.pagewalkers09.walker.walkRequestOrigin::total            0                       # Table walker requests started/completed, data/inst
system.gpu.shader_mmu.pagewalkers09.inst_hits            0                       # ITB inst hits
system.gpu.shader_mmu.pagewalkers09.inst_misses            0                       # ITB inst misses
system.gpu.shader_mmu.pagewalkers09.read_hits            0                       # DTB read hits
system.gpu.shader_mmu.pagewalkers09.read_misses            0                       # DTB read misses
system.gpu.shader_mmu.pagewalkers09.write_hits            0                       # DTB write hits
system.gpu.shader_mmu.pagewalkers09.write_misses            0                       # DTB write misses
system.gpu.shader_mmu.pagewalkers09.flush_tlb            0                       # Number of times complete TLB was flushed
system.gpu.shader_mmu.pagewalkers09.flush_tlb_mva            0                       # Number of times TLB was flushed by MVA
system.gpu.shader_mmu.pagewalkers09.flush_tlb_mva_asid            0                       # Number of times TLB was flushed by MVA & ASID
system.gpu.shader_mmu.pagewalkers09.flush_tlb_asid            0                       # Number of times TLB was flushed by ASID
system.gpu.shader_mmu.pagewalkers09.flush_entries            0                       # Number of entries that have been flushed from TLB
system.gpu.shader_mmu.pagewalkers09.align_faults            0                       # Number of TLB faults due to alignment restrictions
system.gpu.shader_mmu.pagewalkers09.prefetch_faults            0                       # Number of TLB faults due to prefetch
system.gpu.shader_mmu.pagewalkers09.domain_faults            0                       # Number of TLB faults due to domain restrictions
system.gpu.shader_mmu.pagewalkers09.perms_faults            0                       # Number of TLB faults due to permissions restrictions
system.gpu.shader_mmu.pagewalkers09.read_accesses            0                       # DTB read accesses
system.gpu.shader_mmu.pagewalkers09.write_accesses            0                       # DTB write accesses
system.gpu.shader_mmu.pagewalkers09.inst_accesses            0                       # ITB inst accesses
system.gpu.shader_mmu.pagewalkers09.hits            0                       # DTB hits
system.gpu.shader_mmu.pagewalkers09.misses            0                       # DTB misses
system.gpu.shader_mmu.pagewalkers09.accesses            0                       # DTB accesses
system.gpu.shader_mmu.pagewalkers10.walker.walks            0                       # Table walker walks requested
[...]
system.ruby.Directory.miss_mach_latency_hist::total        10763                      
system.ruby.Directory.miss_latency_hist.issue_to_initial_request::bucket_size            1                      
system.ruby.Directory.miss_latency_hist.issue_to_initial_request::max_bucket            9                      
system.ruby.Directory.miss_latency_hist.issue_to_initial_request::samples            1                      
system.ruby.Directory.miss_latency_hist.issue_to_initial_request::stdev          nan                      
system.ruby.Directory.miss_latency_hist.issue_to_initial_request |           1    100.00%    100.00% |           0      0.00%    100.00% |           0      0.00%    100.00% |           0      0.00%    100.00% |           0      0.00%    100.00% |           0      0.00%    100.00% |           0      0.00%    100.00% |           0      0.00%    100.00% |           0      0.00%    100.00% |           0      0.00%    100.00%
system.ruby.Directory.miss_latency_hist.issue_to_initial_request::total            1                      
system.ruby.Directory.miss_latency_hist.initial_to_forward::bucket_size            1                      
system.ruby.Directory.miss_latency_hist.initial_to_forward::max_bucket            9                      
system.ruby.Directory.miss_latency_hist.initial_to_forward::samples            1                      
system.ruby.Directory.miss_latency_hist.initial_to_forward::stdev          nan                      
system.ruby.Directory.miss_latency_hist.initial_to_forward |           1    100.00%    100.00% |           0      0.00%    100.00% |           0      0.00%    100.00% |           0      0.00%    100.00% |           0      0.00%    100.00% |           0      0.00%    100.00% |           0      0.00%    100.00% |           0      0.00%    100.00% |           0      0.00%    100.00% |           0      0.00%    100.00%
system.ruby.Directory.miss_latency_hist.initial_to_forward::total            1                      
system.ruby.Directory.miss_latency_hist.forward_to_first_response::bucket_size            1                      
system.ruby.Directory.miss_latency_hist.forward_to_first_response::max_bucket            9                      
system.ruby.Directory.miss_latency_hist.forward_to_first_response::samples            1                      
system.ruby.Directory.miss_latency_hist.forward_to_first_response::stdev          nan                      
system.ruby.Directory.miss_latency_hist.forward_to_first_response |           1    100.00%    100.00% |           0      0.00%    100.00% |           0      0.00%    100.00% |           0      0.00%    100.00% |           0      0.00%    100.00% |           0      0.00%    100.00% |           0      0.00%    100.00% |           0      0.00%    100.00% |           0      0.00%    100.00% |           0      0.00%    100.00%
system.ruby.Directory.miss_latency_hist.forward_to_first_response::total            1                      
system.ruby.Directory.miss_latency_hist.first_response_to_completion::bucket_size           16                      
system.ruby.Directory.miss_latency_hist.first_response_to_completion::max_bucket          159                      
system.ruby.Directory.miss_latency_hist.first_response_to_completion::samples            1                      
system.ruby.Directory.miss_latency_hist.first_response_to_completion::mean          153                      
system.ruby.Directory.miss_latency_hist.first_response_to_completion::gmean   153.000000                      
system.ruby.Directory.miss_latency_hist.first_response_to_completion::stdev          nan                      
system.ruby.Directory.miss_latency_hist.first_response_to_completion |           0      0.00%      0.00% |           0      0.00%      0.00% |           0      0.00%      0.00% |           0      0.00%      0.00% |           0      0.00%      0.00% |           0      0.00%      0.00% |           0      0.00%      0.00% |           0      0.00%      0.00% |           0      0.00%      0.00% |           1    100.00%    100.00%
system.ruby.Directory.miss_latency_hist.first_response_to_completion::total            1                      
system.ruby.LD.L1Cache.miss_type_mach_latency_hist::bucket_size          256                      
system.ruby.LD.L1Cache.miss_type_mach_latency_hist::max_bucket         2559                      
system.ruby.LD.L1Cache.miss_type_mach_latency_hist::samples          813                      
system.ruby.LD.L1Cache.miss_type_mach_latency_hist::mean   423.546125                      
system.ruby.LD.L1Cache.miss_type_mach_latency_hist::gmean   166.267693                      
system.ruby.LD.L1Cache.miss_type_mach_latency_hist::stdev   549.002312                      
system.ruby.LD.L1Cache.miss_type_mach_latency_hist |         551     67.77%     67.77% |          22      2.71%     70.48% |          24      2.95%     73.43% |          37      4.55%     77.98% |          43      5.29%     83.27% |         116     14.27%     97.54% |          19      2.34%     99.88% |           1      0.12%    100.00% |           0      0.00%    100.00% |           0      0.00%    100.00%
system.ruby.LD.L1Cache.miss_type_mach_latency_hist::total          813                      
system.ruby.LD.Directory.miss_type_mach_latency_hist::bucket_size          256                      
system.ruby.LD.Directory.miss_type_mach_latency_hist::max_bucket         2559                      
system.ruby.LD.Directory.miss_type_mach_latency_hist::samples         3839                      
system.ruby.LD.Directory.miss_type_mach_latency_hist::mean   335.429018                      
system.ruby.LD.Directory.miss_type_mach_latency_hist::gmean   257.914662                      
system.ruby.LD.Directory.miss_type_mach_latency_hist::stdev   354.310212                      
system.ruby.LD.Directory.miss_type_mach_latency_hist |        3204     83.46%     83.46% |         129      3.36%     86.82% |         100      2.60%     89.42% |          91      2.37%     91.79% |          99      2.58%     94.37% |         119      3.10%     97.47% |          84      2.19%     99.66% |          10      0.26%     99.92% |           3      0.08%    100.00% |           0      0.00%    100.00%
system.ruby.LD.Directory.miss_type_mach_latency_hist::total         3839                      
system.ruby.ST.L1Cache.miss_type_mach_latency_hist::bucket_size          256                      
system.ruby.ST.L1Cache.miss_type_mach_latency_hist::max_bucket         2559                      
system.ruby.ST.L1Cache.miss_type_mach_latency_hist::samples          236                      
system.ruby.ST.L1Cache.miss_type_mach_latency_hist::mean   696.588983                      
system.ruby.ST.L1Cache.miss_type_mach_latency_hist::gmean   355.864451                      
system.ruby.ST.L1Cache.miss_type_mach_latency_hist::stdev   515.553547                      
system.ruby.ST.L1Cache.miss_type_mach_latency_hist |          84     35.59%     35.59% |           0      0.00%     35.59% |          22      9.32%     44.92% |          49     20.76%     65.68% |          52     22.03%     87.71% |          25     10.59%     98.31% |           4      1.69%    100.00% |           0      0.00%    100.00% |           0      0.00%    100.00% |           0      0.00%    100.00%
system.ruby.ST.L1Cache.miss_type_mach_latency_hist::total          236                      
system.ruby.ST.Directory.miss_type_mach_latency_hist::bucket_size          256                      
system.ruby.ST.Directory.miss_type_mach_latency_hist::max_bucket         2559                      
system.ruby.ST.Directory.miss_type_mach_latency_hist::samples         1425                      
system.ruby.ST.Directory.miss_type_mach_latency_hist::mean   561.222456                      
system.ruby.ST.Directory.miss_type_mach_latency_hist::gmean   334.832420                      
system.ruby.ST.Directory.miss_type_mach_latency_hist::stdev   612.806821                      
system.ruby.ST.Directory.miss_type_mach_latency_hist |        1022     71.72%     71.72% |          13      0.91%     72.63% |           6      0.42%     73.05% |           3      0.21%     73.26% |          20      1.40%     74.67% |         126      8.84%     83.51% |         217     15.23%     98.74% |          18      1.26%    100.00% |           0      0.00%    100.00% |           0      0.00%    100.00%
system.ruby.ST.Directory.miss_type_mach_latency_hist::total         1425                      
system.ruby.IFETCH.L1Cache.miss_type_mach_latency_hist::bucket_size          256                      
system.ruby.IFETCH.L1Cache.miss_type_mach_latency_hist::max_bucket         2559                      
system.ruby.IFETCH.L1Cache.miss_type_mach_latency_hist::samples           39                      
system.ruby.IFETCH.L1Cache.miss_type_mach_latency_hist::mean   203.205128                      
system.ruby.IFETCH.L1Cache.miss_type_mach_latency_hist::gmean   125.935429                      
system.ruby.IFETCH.L1Cache.miss_type_mach_latency_hist::stdev   286.382720                      
system.ruby.IFETCH.L1Cache.miss_type_mach_latency_hist |          36     92.31%     92.31% |           0      0.00%     92.31% |           0      0.00%     92.31% |           1      2.56%     94.87% |           1      2.56%     97.44% |           1      2.56%    100.00% |           0      0.00%    100.00% |           0      0.00%    100.00% |           0      0.00%    100.00% |           0      0.00%    100.00%
system.ruby.IFETCH.L1Cache.miss_type_mach_latency_hist::total           39                      
system.ruby.IFETCH.Directory.miss_type_mach_latency_hist::bucket_size          256                      
system.ruby.IFETCH.Directory.miss_type_mach_latency_hist::max_bucket         2559                      
system.ruby.IFETCH.Directory.miss_type_mach_latency_hist::samples         5495                      
system.ruby.IFETCH.Directory.miss_type_mach_latency_hist::mean   204.289900                      
system.ruby.IFETCH.Directory.miss_type_mach_latency_hist::gmean   203.645235                      
system.ruby.IFETCH.Directory.miss_type_mach_latency_hist::stdev    24.384058                      
system.ruby.IFETCH.Directory.miss_type_mach_latency_hist |        5453     99.24%     99.24% |          41      0.75%     99.98% |           0      0.00%     99.98% |           0      0.00%     99.98% |           0      0.00%     99.98% |           0      0.00%     99.98% |           1      0.02%    100.00% |           0      0.00%    100.00% |           0      0.00%    100.00% |           0      0.00%    100.00%
system.ruby.IFETCH.Directory.miss_type_mach_latency_hist::total         5495                      
system.ruby.Load_Linked.Directory.miss_type_mach_latency_hist::bucket_size           32                      
system.ruby.Load_Linked.Directory.miss_type_mach_latency_hist::max_bucket          319                      
system.ruby.Load_Linked.Directory.miss_type_mach_latency_hist::samples            4                      
system.ruby.Load_Linked.Directory.miss_type_mach_latency_hist::mean   191.250000                      
system.ruby.Load_Linked.Directory.miss_type_mach_latency_hist::gmean   189.763131                      
system.ruby.Load_Linked.Directory.miss_type_mach_latency_hist::stdev    26.183646                      
system.ruby.Load_Linked.Directory.miss_type_mach_latency_hist |           0      0.00%      0.00% |           0      0.00%      0.00% |           0      0.00%      0.00% |           0      0.00%      0.00% |           1     25.00%     25.00% |           0      0.00%     25.00% |           3     75.00%    100.00% |           0      0.00%    100.00% |           0      0.00%    100.00% |           0      0.00%    100.00%
system.ruby.Load_Linked.Directory.miss_type_mach_latency_hist::total            4                      
system.ruby.Directory_Controller.GETX           14833      0.00%      0.00%
system.ruby.Directory_Controller.PUTX           10132      0.00%      0.00%
system.ruby.Directory_Controller.Memory_Data        10763      0.00%      0.00%
system.ruby.Directory_Controller.Memory_Ack        10132      0.00%      0.00%
system.ruby.Directory_Controller.I.GETX         10763      0.00%      0.00%
system.ruby.Directory_Controller.M.GETX          1088      0.00%      0.00%
system.ruby.Directory_Controller.M.PUTX         10132      0.00%      0.00%
system.ruby.Directory_Controller.IM.GETX         2982      0.00%      0.00%
system.ruby.Directory_Controller.IM.Memory_Data        10763      0.00%      0.00%
system.ruby.Directory_Controller.MI.Memory_Ack        10132      0.00%      0.00%
system.ruby.L1Cache_Controller.Load      |     1032013     99.78%     99.78% |         428      0.04%     99.82% |         421      0.04%     99.86% |         428      0.04%     99.90% |         416      0.04%     99.94% |           0      0.00%     99.94% |         577      0.06%    100.00%
system.ruby.L1Cache_Controller.Load::total      1034283                      
system.ruby.L1Cache_Controller.Ifetch    |     5760249    100.00%    100.00% |          13      0.00%    100.00% |          13      0.00%    100.00% |          13      0.00%    100.00% |          13      0.00%    100.00% |           0      0.00%    100.00% |           0      0.00%    100.00%
system.ruby.L1Cache_Controller.Ifetch::total      5760301                      
system.ruby.L1Cache_Controller.Store     |      924474     99.84%     99.84% |         216      0.02%     99.87% |         226      0.02%     99.89% |         216      0.02%     99.91% |         224      0.02%     99.94% |           0      0.00%     99.94% |         577      0.06%    100.00%
system.ruby.L1Cache_Controller.Store::total       925933                      
system.ruby.L1Cache_Controller.Data      |        9687     81.74%     81.74% |         255      2.15%     83.89% |         252      2.13%     86.02% |         255      2.15%     88.17% |         248      2.09%     90.26% |           0      0.00%     90.26% |        1154      9.74%    100.00%
system.ruby.L1Cache_Controller.Data::total        11851                      
system.ruby.L1Cache_Controller.Fwd_GETX  |         181     16.64%     16.64% |         220     20.22%     36.86% |         212     19.49%     56.34% |         221     20.31%     76.65% |         209     19.21%     95.86% |           0      0.00%     95.86% |          45      4.14%    100.00%
system.ruby.L1Cache_Controller.Fwd_GETX::total         1088                      
system.ruby.L1Cache_Controller.Replacement |        9133     88.92%     88.92% |           0      0.00%     88.92% |           0      0.00%     88.92% |           0      0.00%     88.92% |           0      0.00%     88.92% |           0      0.00%     88.92% |        1138     11.08%    100.00%
system.ruby.L1Cache_Controller.Replacement::total        10271                      
system.ruby.L1Cache_Controller.Writeback_Ack |        9038     89.20%     89.20% |           0      0.00%     89.20% |           0      0.00%     89.20% |           0      0.00%     89.20% |           0      0.00%     89.20% |           0      0.00%     89.20% |        1094     10.80%    100.00%
system.ruby.L1Cache_Controller.Writeback_Ack::total        10132                      
system.ruby.L1Cache_Controller.I.Load    |        3194     68.66%     68.66% |         223      4.79%     73.45% |         221      4.75%     78.20% |         223      4.79%     83.00% |         214      4.60%     87.60% |           0      0.00%     87.60% |         577     12.40%    100.00%
system.ruby.L1Cache_Controller.I.Load::total         4652                      
system.ruby.L1Cache_Controller.I.Ifetch  |        5482     99.06%     99.06% |          13      0.23%     99.30% |          13      0.23%     99.53% |          13      0.23%     99.77% |          13      0.23%    100.00% |           0      0.00%    100.00% |           0      0.00%    100.00%
system.ruby.L1Cache_Controller.I.Ifetch::total         5534                      
system.ruby.L1Cache_Controller.I.Store   |        1011     60.72%     60.72% |          19      1.14%     61.86% |          18      1.08%     62.94% |          19      1.14%     64.08% |          21      1.26%     65.35% |           0      0.00%     65.35% |         577     34.65%    100.00%
system.ruby.L1Cache_Controller.I.Store::total         1665                      
system.ruby.L1Cache_Controller.I.Replacement |          95     68.35%     68.35% |           0      0.00%     68.35% |           0      0.00%     68.35% |           0      0.00%     68.35% |           0      0.00%     68.35% |           0      0.00%     68.35% |          44     31.65%    100.00%
system.ruby.L1Cache_Controller.I.Replacement::total          139                      
system.ruby.L1Cache_Controller.M.Load    |     1028819     99.92%     99.92% |         205      0.02%     99.94% |         200      0.02%     99.96% |         205      0.02%     99.98% |         202      0.02%    100.00% |           0      0.00%    100.00% |           0      0.00%    100.00%
system.ruby.L1Cache_Controller.M.Load::total      1029631                      
system.ruby.L1Cache_Controller.M.Ifetch  |     5754767    100.00%    100.00% |           0      0.00%    100.00% |           0      0.00%    100.00% |           0      0.00%    100.00% |           0      0.00%    100.00% |           0      0.00%    100.00% |           0      0.00%    100.00%
system.ruby.L1Cache_Controller.M.Ifetch::total      5754767                      
system.ruby.L1Cache_Controller.M.Store   |      923463     99.91%     99.91% |         197      0.02%     99.93% |         208      0.02%     99.96% |         197      0.02%     99.98% |         203      0.02%    100.00% |           0      0.00%    100.00% |           0      0.00%    100.00%
system.ruby.L1Cache_Controller.M.Store::total       924268                      
system.ruby.L1Cache_Controller.M.Fwd_GETX |         181     16.64%     16.64% |         220     20.22%     36.86% |         212     19.49%     56.34% |         221     20.31%     76.65% |         209     19.21%     95.86% |           0      0.00%     95.86% |          45      4.14%    100.00%
system.ruby.L1Cache_Controller.M.Fwd_GETX::total         1088                      
system.ruby.L1Cache_Controller.M.Replacement |        9038     89.20%     89.20% |           0      0.00%     89.20% |           0      0.00%     89.20% |           0      0.00%     89.20% |           0      0.00%     89.20% |           0      0.00%     89.20% |        1094     10.80%    100.00%
system.ruby.L1Cache_Controller.M.Replacement::total        10132                      
system.ruby.L1Cache_Controller.MI.Writeback_Ack |        9038     89.20%     89.20% |           0      0.00%     89.20% |           0      0.00%     89.20% |           0      0.00%     89.20% |           0      0.00%     89.20% |           0      0.00%     89.20% |        1094     10.80%    100.00%
system.ruby.L1Cache_Controller.MI.Writeback_Ack::total        10132                      
system.ruby.L1Cache_Controller.IS.Data   |        8676     85.18%     85.18% |         236      2.32%     87.49% |         234      2.30%     89.79% |         236      2.32%     92.11% |         227      2.23%     94.34% |           0      0.00%     94.34% |         577      5.66%    100.00%
system.ruby.L1Cache_Controller.IS.Data::total        10186                      
system.ruby.L1Cache_Controller.IM.Data   |        1011     60.72%     60.72% |          19      1.14%     61.86% |          18      1.08%     62.94% |          19      1.14%     64.08% |          21      1.26%     65.35% |           0      0.00%     65.35% |         577     34.65%    100.00%
system.ruby.L1Cache_Controller.IM.Data::total         1665                      

---------- End Simulation Statistics   ----------
