
---------- Begin Simulation Statistics ----------
sim_seconds                                  0.008730                       # Number of seconds simulated
sim_ticks                                  8729908500                       # Number of ticks simulated
final_tick                                 8729908500                       # Number of ticks from beginning of simulation (restored from checkpoints and never reset)
sim_freq                                 1000000000000                       # Frequency of simulated ticks
host_inst_rate                                 295231                       # Simulator instruction rate (inst/s)
host_op_rate                                   344071                       # Simulator op (including micro ops) rate (op/s)
host_tick_rate                              513604570                       # Simulator tick rate (ticks/s)
host_mem_usage                                4521544                       # Number of bytes of host memory used
host_seconds                                    17.00                       # Real time elapsed on the host
sim_insts                                     5018139                       # Number of instructions simulated
sim_ops                                       5848279                       # Number of ops (including micro ops) simulated
system.voltage_domain.voltage                       1                       # Voltage in Volts
system.clk_domain.clock                          1000                       # Clock period in ticks
system.mem_ctrls.clk_domain.clock                2500                       # Clock period in ticks
system.mem_ctrls.bytes_read::ruby.dir_cntrl0      1378944                       # Number of bytes read from this memory
system.mem_ctrls.bytes_read::total            1378944                       # Number of bytes read from this memory
system.mem_ctrls.bytes_written::ruby.dir_cntrl0      1298048                       # Number of bytes written to this memory
system.mem_ctrls.bytes_written::total         1298048                       # Number of bytes written to this memory
system.mem_ctrls.num_reads::ruby.dir_cntrl0        10773                       # Number of read requests responded to by this memory
system.mem_ctrls.num_reads::total               10773                       # Number of read requests responded to by this memory
system.mem_ctrls.num_writes::ruby.dir_cntrl0        10141                       # Number of write requests responded to by this memory
system.mem_ctrls.num_writes::total              10141                       # Number of write requests responded to by this memory
system.mem_ctrls.bw_read::ruby.dir_cntrl0    157956295                       # Total read bandwidth from this memory (bytes/s)
system.mem_ctrls.bw_read::total             157956295                       # Total read bandwidth from this memory (bytes/s)
system.mem_ctrls.bw_write::ruby.dir_cntrl0    148689760                       # Write bandwidth from this memory (bytes/s)
system.mem_ctrls.bw_write::total            148689760                       # Write bandwidth from this memory (bytes/s)
system.mem_ctrls.bw_total::ruby.dir_cntrl0    306646055                       # Total bandwidth to/from this memory (bytes/s)
system.mem_ctrls.bw_total::total            306646055                       # Total bandwidth to/from this memory (bytes/s)
system.mem_ctrls.memReq                         20914                       # Total number of memory requests
system.mem_ctrls.memRead                        10773                       # Number of memory reads
system.mem_ctrls.memWrite                       10141                       # Number of memory writes
system.mem_ctrls.memRefresh                     63481                       # Number of memory refreshes
system.mem_ctrls.memWaitCycles                 127601                       # Delay stalled at the head of the bank queue
system.mem_ctrls.memInputQ                      11300                       # Delay in the input queue
system.mem_ctrls.memBankQ                       35082                       # Delay behind the head of the bank queue
system.mem_ctrls.totalStalls                   173983                       # Total number of stall cycles
system.mem_ctrls.stallsPerReq                8.318973                       # Expected number of stall cycles per request
system.mem_ctrls.memBankBusy                    96703                       # memory stalls due to busy bank
system.mem_ctrls.memBusBusy                     11872                       # memory stalls due to busy bus
system.mem_ctrls.memReadWriteBusy                2225                       # memory stalls due to read write turnaround
system.mem_ctrls.memDataBusBusy                  1486                       # memory stalls due to read read turnaround
system.mem_ctrls.memArbWait                      8657                       # memory stalls due to arbitration
system.mem_ctrls.memNotOld                       6658                       # memory stalls due to anti starvation
system.mem_ctrls.memBankCount            |         539      2.58%      2.58% |         125      0.60%      3.17% |         156      0.75%      3.92% |         617      2.95%      6.87% |         178      0.85%      7.72% |         139      0.66%      8.39% |         169      0.81%      9.19% |         190      0.91%     10.10% |         169      0.81%     10.91% |         176      0.84%     11.75% |        2042      9.76%     21.52% |       11578     55.36%     76.88% |         211      1.01%     77.89% |         211      1.01%     78.89% |         480      2.30%     81.19% |         199      0.95%     82.14% |         188      0.90%     83.04% |         176      0.84%     83.88% |         552      2.64%     86.52% |         419      2.00%     88.52% |         156      0.75%     89.27% |         154      0.74%     90.01% |         164      0.78%     90.79% |         154      0.74%     91.53% |         156      0.75%     92.27% |         165      0.79%     93.06% |         341      1.63%     94.69% |         144      0.69%     95.38% |         539      2.58%     97.96% |         142      0.68%     98.64% |         147      0.70%     99.34% |         138      0.66%    100.00% # Number of accesses per bank
system.mem_ctrls.memBankCount::total            20914                       # Number of accesses per bank
system.ruby_clk_domain.clock                      500                       # Clock period in ticks
system.ruby.phys_mem.bytes_read::cpu.inst     23038604                       # Number of bytes read from this memory
system.ruby.phys_mem.bytes_read::cpu.data      4857717                       # Number of bytes read from this memory
system.ruby.phys_mem.bytes_read::gpu.ce         73052                       # Number of bytes read from this memory
system.ruby.phys_mem.bytes_read::gpu.shader_cores0.data        35072                       # Number of bytes read from this memory
system.ruby.phys_mem.bytes_read::gpu.shader_cores0.inst          312                       # Number of bytes read from this memory
system.ruby.phys_mem.bytes_read::gpu.shader_cores1.data        35456                       # Number of bytes read from this memory
system.ruby.phys_mem.bytes_read::gpu.shader_cores1.inst          312                       # Number of bytes read from this memory
system.ruby.phys_mem.bytes_read::gpu.shader_cores2.data        35072                       # Number of bytes read from this memory
system.ruby.phys_mem.bytes_read::gpu.shader_cores2.inst          312                       # Number of bytes read from this memory
system.ruby.phys_mem.bytes_read::gpu.shader_cores3.data        34816                       # Number of bytes read from this memory
system.ruby.phys_mem.bytes_read::gpu.shader_cores3.inst          312                       # Number of bytes read from this memory
system.ruby.phys_mem.bytes_read::total       28111037                       # Number of bytes read from this memory
system.ruby.phys_mem.bytes_inst_read::cpu.inst     23038604                       # Number of instructions bytes read from this memory
system.ruby.phys_mem.bytes_inst_read::gpu.shader_cores0.inst          312                       # Number of instructions bytes read from this memory
system.ruby.phys_mem.bytes_inst_read::gpu.shader_cores1.inst          312                       # Number of instructions bytes read from this memory
system.ruby.phys_mem.bytes_inst_read::gpu.shader_cores2.inst          312                       # Number of instructions bytes read from this memory
system.ruby.phys_mem.bytes_inst_read::gpu.shader_cores3.inst          312                       # Number of instructions bytes read from this memory
system.ruby.phys_mem.bytes_inst_read::total     23039852                       # Number of instructions bytes read from this memory
system.ruby.phys_mem.bytes_written::cpu.data      3503350                       # Number of bytes written to this memory
system.ruby.phys_mem.bytes_written::gpu.ce        73052                       # Number of bytes written to this memory
system.ruby.phys_mem.bytes_written::gpu.shader_cores0.data         8448                       # Number of bytes written to this memory
system.ruby.phys_mem.bytes_written::gpu.shader_cores1.data         8576                       # Number of bytes written to this memory
system.ruby.phys_mem.bytes_written::gpu.shader_cores2.data         8448                       # Number of bytes written to this memory
system.ruby.phys_mem.bytes_written::gpu.shader_cores3.data         8448                       # Number of bytes written to this memory
system.ruby.phys_mem.bytes_written::total      3610322                       # Number of bytes written to this memory
system.ruby.phys_mem.num_reads::cpu.inst      5759651                       # Number of read requests responded to by this memory
system.ruby.phys_mem.num_reads::cpu.data      1048628                       # Number of read requests responded to by this memory
system.ruby.phys_mem.num_reads::gpu.ce            577                       # Number of read requests responded to by this memory
system.ruby.phys_mem.num_reads::gpu.shader_cores0.data          428                       # Number of read requests responded to by this memory
system.ruby.phys_mem.num_reads::gpu.shader_cores0.inst           13                       # Number of read requests responded to by this memory
system.ruby.phys_mem.num_reads::gpu.shader_cores1.data          421                       # Number of read requests responded to by this memory
system.ruby.phys_mem.num_reads::gpu.shader_cores1.inst           13                       # Number of read requests responded to by this memory
system.ruby.phys_mem.num_reads::gpu.shader_cores2.data          428                       # Number of read requests responded to by this memory
system.ruby.phys_mem.num_reads::gpu.shader_cores2.inst           13                       # Number of read requests responded to by this memory
system.ruby.phys_mem.num_reads::gpu.shader_cores3.data          416                       # Number of read requests responded to by this memory
system.ruby.phys_mem.num_reads::gpu.shader_cores3.inst           13                       # Number of read requests responded to by this memory
system.ruby.phys_mem.num_reads::total         6810601                       # Number of read requests responded to by this memory
system.ruby.phys_mem.num_writes::cpu.data       907717                       # Number of write requests responded to by this memory
system.ruby.phys_mem.num_writes::gpu.ce           577                       # Number of write requests responded to by this memory
system.ruby.phys_mem.num_writes::gpu.shader_cores0.data          216                       # Number of write requests responded to by this memory
system.ruby.phys_mem.num_writes::gpu.shader_cores1.data          226                       # Number of write requests responded to by this memory
system.ruby.phys_mem.num_writes::gpu.shader_cores2.data          216                       # Number of write requests responded to by this memory
system.ruby.phys_mem.num_writes::gpu.shader_cores3.data          224                       # Number of write requests responded to by this memory
system.ruby.phys_mem.num_writes::total         909176                       # Number of write requests responded to by this memory
system.ruby.phys_mem.bw_read::cpu.inst     2639043009                       # Total read bandwidth from this memory (bytes/s)
system.ruby.phys_mem.bw_read::cpu.data      556445351                       # Total read bandwidth from this memory (bytes/s)
system.ruby.phys_mem.bw_read::gpu.ce          8368014                       # Total read bandwidth from this memory (bytes/s)
system.ruby.phys_mem.bw_read::gpu.shader_cores0.data      4017453                       # Total read bandwidth from this memory (bytes/s)
system.ruby.phys_mem.bw_read::gpu.shader_cores0.inst        35739                       # Total read bandwidth from this memory (bytes/s)
system.ruby.phys_mem.bw_read::gpu.shader_cores1.data      4061440                       # Total read bandwidth from this memory (bytes/s)
system.ruby.phys_mem.bw_read::gpu.shader_cores1.inst        35739                       # Total read bandwidth from this memory (bytes/s)
system.ruby.phys_mem.bw_read::gpu.shader_cores2.data      4017453                       # Total read bandwidth from this memory (bytes/s)
system.ruby.phys_mem.bw_read::gpu.shader_cores2.inst        35739                       # Total read bandwidth from this memory (bytes/s)
system.ruby.phys_mem.bw_read::gpu.shader_cores3.data      3988129                       # Total read bandwidth from this memory (bytes/s)
system.ruby.phys_mem.bw_read::gpu.shader_cores3.inst        35739                       # Total read bandwidth from this memory (bytes/s)
system.ruby.phys_mem.bw_read::total        3220083807                       # Total read bandwidth from this memory (bytes/s)
system.ruby.phys_mem.bw_inst_read::cpu.inst   2639043009                       # Instruction read bandwidth from this memory (bytes/s)
system.ruby.phys_mem.bw_inst_read::gpu.shader_cores0.inst        35739                       # Instruction read bandwidth from this memory (bytes/s)
system.ruby.phys_mem.bw_inst_read::gpu.shader_cores1.inst        35739                       # Instruction read bandwidth from this memory (bytes/s)
system.ruby.phys_mem.bw_inst_read::gpu.shader_cores2.inst        35739                       # Instruction read bandwidth from this memory (bytes/s)
system.ruby.phys_mem.bw_inst_read::gpu.shader_cores3.inst        35739                       # Instruction read bandwidth from this memory (bytes/s)
system.ruby.phys_mem.bw_inst_read::total   2639185966                       # Instruction read bandwidth from this memory (bytes/s)
system.ruby.phys_mem.bw_write::cpu.data     401304321                       # Write bandwidth from this memory (bytes/s)
system.ruby.phys_mem.bw_write::gpu.ce         8368014                       # Write bandwidth from this memory (bytes/s)
system.ruby.phys_mem.bw_write::gpu.shader_cores0.data       967708                       # Write bandwidth from this memory (bytes/s)
system.ruby.phys_mem.bw_write::gpu.shader_cores1.data       982370                       # Write bandwidth from this memory (bytes/s)
system.ruby.phys_mem.bw_write::gpu.shader_cores2.data       967708                       # Write bandwidth from this memory (bytes/s)
system.ruby.phys_mem.bw_write::gpu.shader_cores3.data       967708                       # Write bandwidth from this memory (bytes/s)
system.ruby.phys_mem.bw_write::total        413557828                       # Write bandwidth from this memory (bytes/s)
system.ruby.phys_mem.bw_total::cpu.inst    2639043009                       # Total bandwidth to/from this memory (bytes/s)
system.ruby.phys_mem.bw_total::cpu.data     957749672                       # Total bandwidth to/from this memory (bytes/s)
system.ruby.phys_mem.bw_total::gpu.ce        16736029                       # Total bandwidth to/from this memory (bytes/s)
system.ruby.phys_mem.bw_total::gpu.shader_cores0.data      4985161                       # Total bandwidth to/from this memory (bytes/s)
system.ruby.phys_mem.bw_total::gpu.shader_cores0.inst        35739                       # Total bandwidth to/from this memory (bytes/s)
system.ruby.phys_mem.bw_total::gpu.shader_cores1.data      5043810                       # Total bandwidth to/from this memory (bytes/s)
system.ruby.phys_mem.bw_total::gpu.shader_cores1.inst        35739                       # Total bandwidth to/from this memory (bytes/s)
system.ruby.phys_mem.bw_total::gpu.shader_cores2.data      4985161                       # Total bandwidth to/from this memory (bytes/s)
system.ruby.phys_mem.bw_total::gpu.shader_cores2.inst        35739                       # Total bandwidth to/from this memory (bytes/s)
system.ruby.phys_mem.bw_total::gpu.shader_cores3.data      4955837                       # Total bandwidth to/from this memory (bytes/s)
system.ruby.phys_mem.bw_total::gpu.shader_cores3.inst        35739                       # Total bandwidth to/from this memory (bytes/s)
system.ruby.phys_mem.bw_total::total       3633641636                       # Total bandwidth to/from this memory (bytes/s)
system.cpu_voltage_domain.voltage                   1                       # Voltage in Volts
system.cpu_clk_domain.clock                       500                       # Clock period in ticks
system.cpu.dstage2_mmu.stage2_tlb.walker.walks            0                       # Table walker walks requested
system.cpu.dstage2_mmu.stage2_tlb.walker.walkRequestOrigin_Requested::Data            0                       # Table walker requests started/completed, data/inst
system.cpu.dstage2_mmu.stage2_tlb.walker.walkRequestOrigin_Requested::Inst            0                       # Table walker requests started/completed, data/inst
system.cpu.dstage2_mmu.stage2_tlb.walker.walkRequestOrigin_Requested::total            0                       # Table walker requests started/completed, data/inst
system.cpu.dstage2_mmu.stage2_tlb.walker.walkRequestOrigin_Completed::Data            0                       # Table walker requests started/completed, data/inst
system.cpu.dstage2_mmu.stage2_tlb.walker.walkRequestOrigin_Completed::Inst            0                       # Table walker requests started/completed, data/inst
system.cpu.dstage2_mmu.stage2_tlb.walker.walkRequestOrigin_Completed::total            0                       # Table walker requests started/completed, data/inst
system.cpu.dstage2_mmu.stage2_tlb.walker.walkRequestOrigin::total            0                       # Table walker requests started/completed, data/inst
system.cpu.dstage2_mmu.stage2_tlb.inst_hits            0                       # ITB inst hits
system.cpu.dstage2_mmu.stage2_tlb.inst_misses            0                       # ITB inst misses
system.cpu.dstage2_mmu.stage2_tlb.read_hits            0                       # DTB read hits
system.cpu.dstage2_mmu.stage2_tlb.read_misses            0                       # DTB read misses
system.cpu.dstage2_mmu.stage2_tlb.write_hits            0                       # DTB write hits
system.cpu.dstage2_mmu.stage2_tlb.write_misses            0                       # DTB write misses
system.cpu.dstage2_mmu.stage2_tlb.flush_tlb            0                       # Number of times complete TLB was flushed
system.cpu.dstage2_mmu.stage2_tlb.flush_tlb_mva            0                       # Number of times TLB was flushed by MVA
system.cpu.dstage2_mmu.stage2_tlb.flush_tlb_mva_asid            0                       # Number of times TLB was flushed by MVA & ASID
system.cpu.dstage2_mmu.stage2_tlb.flush_tlb_asid            0                       # Number of times TLB was flushed by ASID
system.cpu.dstage2_mmu.stage2_tlb.flush_entries            0                       # Number of entries that have been flushed from TLB
system.cpu.dstage2_mmu.stage2_tlb.align_faults            0                       # Number of TLB faults due to alignment restrictions
system.cpu.dstage2_mmu.stage2_tlb.prefetch_faults            0                       # Number of TLB faults due to prefetch
system.cpu.dstage2_mmu.stage2_tlb.domain_faults            0                       # Number of TLB faults due to domain restrictions
system.cpu.dstage2_mmu.stage2_tlb.perms_faults            0                       # Number of TLB faults due to permissions restrictions
system.cpu.dstage2_mmu.stage2_tlb.read_accesses            0                       # DTB read accesses
system.cpu.dstage2_mmu.stage2_tlb.write_accesses            0                       # DTB write accesses
system.cpu.dstage2_mmu.stage2_tlb.inst_accesses            0                       # ITB inst accesses
system.cpu.dstage2_mmu.stage2_tlb.hits              0                       # DTB hits
system.cpu.dstage2_mmu.stage2_tlb.misses            0                       # DTB misses
system.cpu.dstage2_mmu.stage2_tlb.accesses            0                       # DTB accesses
system.cpu.dtb.walker.walks                         0                       # Table walker walks requested
system.cpu.dtb.walker.walkRequestOrigin_Requested::Data            0                       # Table walker requests started/completed, data/inst
system.cpu.dtb.walker.walkRequestOrigin_Requested::Inst            0                       # Table walker requests started/completed, data/inst
system.cpu.dtb.walker.walkRequestOrigin_Requested::total            0                       # Table walker requests started/completed, data/inst
system.cpu.dtb.walker.walkRequestOrigin_Completed::Data            0                       # Table walker requests started/completed, data/inst
system.cpu.dtb.walker.walkRequestOrigin_Completed::Inst            0                       # Table walker requests started/completed, data/inst
system.cpu.dtb.walker.walkRequestOrigin_Completed::total            0                       # Table walker requests started/completed, data/inst
system.cpu.dtb.walker.walkRequestOrigin::total            0                       # Table walker requests started/completed, data/inst
system.cpu.dtb.inst_hits                            0                       # ITB inst hits
system.cpu.dtb.inst_misses                          0                       # ITB inst misses
system.cpu.dtb.read_hits                            0                       # DTB read hits
system.cpu.dtb.read_misses                          0                       # DTB read misses
system.cpu.dtb.write_hits                           0                       # DTB write hits
system.cpu.dtb.write_misses                         0                       # DTB write misses
system.cpu.dtb.flush_tlb                            0                       # Number of times complete TLB was flushed
system.cpu.dtb.flush_tlb_mva                        0                       # Number of times TLB was flushed by MVA
system.cpu.dtb.flush_tlb_mva_asid                   0                       # Number of times TLB was flushed by MVA & ASID
system.cpu.dtb.flush_tlb_asid                       0                       # Number of times TLB was flushed by ASID
system.cpu.dtb.flush_entries                        0                       # Number of entries that have been flushed from TLB
system.cpu.dtb.align_faults                         0                       # Number of TLB faults due to alignment restrictions
system.cpu.dtb.prefetch_faults                      0                       # Number of TLB faults due to prefetch
system.cpu.dtb.domain_faults                        0                       # Number of TLB faults due to domain restrictions
system.cpu.dtb.perms_faults                         0                       # Number of TLB faults due to permissions restrictions
system.cpu.dtb.read_accesses                        0                       # DTB read accesses
system.cpu.dtb.write_accesses                       0                       # DTB write accesses
system.cpu.dtb.inst_accesses                        0                       # ITB inst accesses
system.cpu.dtb.hits                                 0                       # DTB hits
system.cpu.dtb.misses                               0                       # DTB misses
system.cpu.dtb.accesses                             0                       # DTB accesses
system.cpu.istage2_mmu.stage2_tlb.walker.walks            0                       # Table walker walks requested
system.cpu.istage2_mmu.stage2_tlb.walker.walkRequestOrigin_Requested::Data            0                       # Table walker requests started/completed, data/inst
system.cpu.istage2_mmu.stage2_tlb.walker.walkRequestOrigin_Requested::Inst            0                       # Table walker requests started/completed, data/inst
system.cpu.istage2_mmu.stage2_tlb.walker.walkRequestOrigin_Requested::total            0                       # Table walker requests started/completed, data/inst
system.cpu.istage2_mmu.stage2_tlb.walker.walkRequestOrigin_Completed::Data            0                       # Table walker requests started/completed, data/inst
system.cpu.istage2_mmu.stage2_tlb.walker.walkRequestOrigin_Completed::Inst            0                       # Table walker requests started/completed, data/inst
system.cpu.istage2_mmu.stage2_tlb.walker.walkRequestOrigin_Completed::total            0                       # Table walker requests started/completed, data/inst
system.cpu.istage2_mmu.stage2_tlb.walker.walkRequestOrigin::total            0                       # Table walker requests started/completed, data/inst
system.cpu.istage2_mmu.stage2_tlb.inst_hits            0                       # ITB inst hits
system.cpu.istage2_mmu.stage2_tlb.inst_misses            0                       # ITB inst misses
system.cpu.istage2_mmu.stage2_tlb.read_hits            0                       # DTB read hits
system.cpu.istage2_mmu.stage2_tlb.read_misses            0                       # DTB read misses
system.cpu.istage2_mmu.stage2_tlb.write_hits            0                       # DTB write hits
system.cpu.istage2_mmu.stage2_tlb.write_misses            0                       # DTB write misses
system.cpu.istage2_mmu.stage2_tlb.flush_tlb            0                       # Number of times complete TLB was flushed
system.cpu.istage2_mmu.stage2_tlb.flush_tlb_mva            0                       # Number of times TLB was flushed by MVA
system.cpu.istage2_mmu.stage2_tlb.flush_tlb_mva_asid            0                       # Number of times TLB was flushed by MVA & ASID
system.cpu.istage2_mmu.stage2_tlb.flush_tlb_asid            0                       # Number of times TLB was flushed by ASID
system.cpu.istage2_mmu.stage2_tlb.flush_entries            0                       # Number of entries that have been flushed from TLB
system.cpu.istage2_mmu.stage2_tlb.align_faults            0                       # Number of TLB faults due to alignment restrictions
system.cpu.istage2_mmu.stage2_tlb.prefetch_faults            0                       # Number of TLB faults due to prefetch
system.cpu.istage2_mmu.stage2_tlb.domain_faults            0                       # Number of TLB faults due to domain restrictions
system.cpu.istage2_mmu.stage2_tlb.perms_faults            0                       # Number of TLB faults due to permissions restrictions
system.cpu.istage2_mmu.stage2_tlb.read_accesses            0                       # DTB read accesses
system.cpu.istage2_mmu.stage2_tlb.write_accesses            0                       # DTB write accesses
system.cpu.istage2_mmu.stage2_tlb.inst_accesses            0                       # ITB inst accesses
system.cpu.istage2_mmu.stage2_tlb.hits              0                       # DTB hits
system.cpu.istage2_mmu.stage2_tlb.misses            0                       # DTB misses
system.cpu.istage2_mmu.stage2_tlb.accesses            0                       # DTB accesses
system.cpu.itb.walker.walks                         0                       # Table walker walks requested
system.cpu.itb.walker.walkRequestOrigin_Requested::Data            0                       # Table walker requests started/completed, data/inst
system.cpu.itb.walker.walkRequestOrigin_Requested::Inst            0                       # Table walker requests started/completed, data/inst
system.cpu.itb.walker.walkRequestOrigin_Requested::total            0                       # Table walker requests started/completed, data/inst
system.cpu.itb.walker.walkRequestOrigin_Completed::Data            0                       # Table walker requests started/completed, data/inst
system.cpu.itb.walker.walkRequestOrigin_Completed::Inst            0                       # Table walker requests started/completed, data/inst
system.cpu.itb.walker.walkRequestOrigin_Completed::total            0                       # Table walker requests started/completed, data/inst
system.cpu.itb.walker.walkRequestOrigin::total            0                       # Table walker requests started/completed, data/inst
system.cpu.itb.inst_hits                            0                       # ITB inst hits
system.cpu.itb.inst_misses                          0                       # ITB inst misses
system.cpu.itb.read_hits                            0                       # DTB read hits
system.cpu.itb.read_misses                          0                       # DTB read misses
system.cpu.itb.write_hits                           0                       # DTB write hits
system.cpu.itb.write_misses                         0                       # DTB write misses
system.cpu.itb.flush_tlb                            0                       # Number of times complete TLB was flushed
system.cpu.itb.flush_tlb_mva                        0                       # Number of times TLB was flushed by MVA
system.cpu.itb.flush_tlb_mva_asid                   0                       # Number of times TLB was flushed by MVA & ASID
system.cpu.itb.flush_tlb_asid                       0                       # Number of times TLB was flushed by ASID
system.cpu.itb.flush_entries                        0                       # Number of entries that have been flushed from TLB
system.cpu.itb.align_faults                         0                       # Number of TLB faults due to alignment restrictions
system.cpu.itb.prefetch_faults                      0                       # Number of TLB faults due to prefetch
system.cpu.itb.domain_faults                        0                       # Number of TLB faults due to domain restrictions
system.cpu.itb.perms_faults                         0                       # Number of TLB faults due to permissions restrictions
system.cpu.itb.read_accesses                        0                       # DTB read accesses
system.cpu.itb.write_accesses                       0                       # DTB write accesses
system.cpu.itb.inst_accesses                        0                       # ITB inst accesses
system.cpu.itb.hits                                 0                       # DTB hits
system.cpu.itb.misses                               0                       # DTB misses
system.cpu.itb.accesses                             0                       # DTB accesses
system.cpu.workload.num_syscalls                   46                       # Number of system calls
system.cpu.numCycles                         17459817                       # number of cpu cycles simulated
system.cpu.numWorkItemsStarted                      1                       # number of work items this cpu started
system.cpu.numWorkItemsCompleted                    1                       # number of work items this cpu completed
system.cpu.committedInsts                     5018139                       # Number of instructions committed
system.cpu.committedOps                       5848279                       # Number of ops (including micro ops) committed
system.cpu.num_int_alu_accesses               5000970                       # Number of integer alu accesses
system.cpu.num_fp_alu_accesses                  59932                       # Number of float alu accesses
system.cpu.num_func_calls                      195246                       # number of times a function call or return occured
system.cpu.num_conditional_control_insts       760767                       # number of instructions that are conditional controls
system.cpu.num_int_insts                      5000970                       # number of integer instructions
system.cpu.num_fp_insts                         59932                       # number of float instructions
system.cpu.num_int_register_reads             8778280                       # number of times the integer registers were read
system.cpu.num_int_register_writes            3379200                       # number of times the integer registers were written
system.cpu.num_fp_register_reads                67568                       # number of times the floating registers were read
system.cpu.num_fp_register_writes               47263                       # number of times the floating registers were written
system.cpu.num_cc_register_reads             20755946                       # number of times the CC registers were read
system.cpu.num_cc_register_writes             2988466                       # number of times the CC registers were written
system.cpu.num_mem_refs                       2038033                       # number of memory refs
system.cpu.num_load_insts                     1058314                       # Number of load instructions
system.cpu.num_store_insts                     979719                       # Number of store instructions
system.cpu.num_idle_cycles               75174.001991                       # Number of idle cycles
system.cpu.num_busy_cycles               17384642.998009                       # Number of busy cycles
system.cpu.not_idle_fraction                 0.995694                       # Percentage of non-idle cycles
system.cpu.idle_fraction                     0.004306                       # Percentage of idle cycles
system.cpu.Branches                           1037567                       # Number of branches fetched
system.cpu.op_class::No_OpClass                     0      0.00%      0.00% # Class of executed instruction
system.cpu.op_class::IntAlu                   3822436     64.46%     64.46% # Class of executed instruction
system.cpu.op_class::IntMult                    35530      0.60%     65.06% # Class of executed instruction
system.cpu.op_class::IntDiv                         0      0.00%     65.06% # Class of executed instruction
system.cpu.op_class::FloatAdd                       0      0.00%     65.06% # Class of executed instruction
system.cpu.op_class::FloatCmp                       0      0.00%     65.06% # Class of executed instruction
system.cpu.op_class::FloatCvt                       0      0.00%     65.06% # Class of executed instruction
system.cpu.op_class::FloatMult                      0      0.00%     65.06% # Class of executed instruction
system.cpu.op_class::FloatDiv                       0      0.00%     65.06% # Class of executed instruction
system.cpu.op_class::FloatSqrt                      0      0.00%     65.06% # Class of executed instruction
system.cpu.op_class::SimdAdd                        0      0.00%     65.06% # Class of executed instruction
system.cpu.op_class::SimdAddAcc                     0      0.00%     65.06% # Class of executed instruction
system.cpu.op_class::SimdAlu                        0      0.00%     65.06% # Class of executed instruction
system.cpu.op_class::SimdCmp                        0      0.00%     65.06% # Class of executed instruction
system.cpu.op_class::SimdCvt                        0      0.00%     65.06% # Class of executed instruction
system.cpu.op_class::SimdMisc                       0      0.00%     65.06% # Class of executed instruction
system.cpu.op_class::SimdMult                       0      0.00%     65.06% # Class of executed instruction
system.cpu.op_class::SimdMultAcc                    0      0.00%     65.06% # Class of executed instruction
system.cpu.op_class::SimdShift                      0      0.00%     65.06% # Class of executed instruction
system.cpu.op_class::SimdShiftAcc                   0      0.00%     65.06% # Class of executed instruction
system.cpu.op_class::SimdSqrt                       0      0.00%     65.06% # Class of executed instruction
system.cpu.op_class::SimdFloatAdd                 412      0.01%     65.06% # Class of executed instruction
system.cpu.op_class::SimdFloatAlu                   0      0.00%     65.06% # Class of executed instruction
system.cpu.op_class::SimdFloatCmp                  83      0.00%     65.07% # Class of executed instruction
system.cpu.op_class::SimdFloatCvt                6964      0.12%     65.18% # Class of executed instruction
system.cpu.op_class::SimdFloatDiv                  18      0.00%     65.18% # Class of executed instruction
system.cpu.op_class::SimdFloatMisc              21749      0.37%     65.55% # Class of executed instruction
system.cpu.op_class::SimdFloatMult               4747      0.08%     65.63% # Class of executed instruction
system.cpu.op_class::SimdFloatMultAcc             140      0.00%     65.63% # Class of executed instruction
system.cpu.op_class::SimdFloatSqrt                  0      0.00%     65.63% # Class of executed instruction
system.cpu.op_class::MemRead                  1058314     17.85%     83.48% # Class of executed instruction
system.cpu.op_class::MemWrite                  979719     16.52%    100.00% # Class of executed instruction
system.cpu.op_class::IprAccess                      0      0.00%    100.00% # Class of executed instruction
system.cpu.op_class::InstPrefetch                   0      0.00%    100.00% # Class of executed instruction
system.cpu.op_class::total                    5930112                       # Class of executed instruction
system.gpu.clk_domain.voltage_domain.voltage            1                       # Voltage in Volts
system.gpu.clk_domain.clock                      1429                       # Clock period in ticks
system.gpu.dram_wrapper.clk_domain.clock          541                       # Clock period in ticks
system.gpu.icnt_wrapper.clk_domain.clock         2858                       # Clock period in ticks
system.ruby.delayHist::bucket_size                 32                       # delay histogram for all message
system.ruby.delayHist::max_bucket                 319                       # delay histogram for all message
system.ruby.delayHist::samples                  23080                       # delay histogram for all message
system.ruby.delayHist::mean                  0.690555                       # delay histogram for all message
system.ruby.delayHist::stdev                 4.515496                       # delay histogram for all message
system.ruby.delayHist                    |       23004     99.67%     99.67% |          64      0.28%     99.95% |           6      0.03%     99.97% |           3      0.01%     99.99% |           1      0.00%     99.99% |           2      0.01%    100.00% |           0      0.00%    100.00% |           0      0.00%    100.00% |           0      0.00%    100.00% |           0      0.00%    100.00% # delay histogram for all message
system.ruby.delayHist::total                    23080                       # delay histogram for all message
system.ruby.outstanding_req_hist::bucket_size            8                      
system.ruby.outstanding_req_hist::max_bucket           79                      
system.ruby.outstanding_req_hist::samples      7719778                      
system.ruby.outstanding_req_hist::mean       1.010419                      
system.ruby.outstanding_req_hist::gmean      1.001063                      
system.ruby.outstanding_req_hist::stdev      0.723831                      
system.ruby.outstanding_req_hist         |     7717911     99.98%     99.98% |         212      0.00%     99.98% |         264      0.00%     99.98% |         266      0.00%     99.99% |         203      0.00%     99.99% |          35      0.00%     99.99% |          36      0.00%     99.99% |          52      0.00%     99.99% |         799      0.01%    100.00% |           0      0.00%    100.00%
system.ruby.outstanding_req_hist::total       7719778                      
system.ruby.latency_hist::bucket_size             256                      
system.ruby.latency_hist::max_bucket             2559                      
system.ruby.latency_hist::samples             7719777                      
system.ruby.latency_hist::mean               1.484593                      
system.ruby.latency_hist::gmean              1.008406                      
system.ruby.latency_hist::stdev             18.887203                      
system.ruby.latency_hist                 |     7718286     99.98%     99.98% |         207      0.00%     99.98% |         133      0.00%     99.99% |         162      0.00%     99.99% |         220      0.00%     99.99% |         420      0.01%    100.00% |         307      0.00%    100.00% |          39      0.00%    100.00% |           3      0.00%    100.00% |           0      0.00%    100.00%
system.ruby.latency_hist::total               7719777                      
system.ruby.hit_latency_hist::bucket_size            1                      
system.ruby.hit_latency_hist::max_bucket            9                      
system.ruby.hit_latency_hist::samples         7707921                      
system.ruby.hit_latency_hist::mean                  1                      
system.ruby.hit_latency_hist::gmean                 1                      
system.ruby.hit_latency_hist             |           0      0.00%      0.00% |     7707921    100.00%    100.00% |           0      0.00%    100.00% |           0      0.00%    100.00% |           0      0.00%    100.00% |           0      0.00%    100.00% |           0      0.00%    100.00% |           0      0.00%    100.00% |           0      0.00%    100.00% |           0      0.00%    100.00%
system.ruby.hit_latency_hist::total           7707921                      
system.ruby.miss_latency_hist::bucket_size          256                      
system.ruby.miss_latency_hist::max_bucket         2559                      
system.ruby.miss_latency_hist::samples          11856                      
system.ruby.miss_latency_hist::mean        316.531967                      
system.ruby.miss_latency_hist::gmean       232.817293                      
system.ruby.miss_latency_hist::stdev       364.524800                      
system.ruby.miss_latency_hist            |       10365     87.42%     87.42% |         207      1.75%     89.17% |         133      1.12%     90.29% |         162      1.37%     91.66% |         220      1.86%     93.51% |         420      3.54%     97.06% |         307      2.59%     99.65% |          39      0.33%     99.97% |           3      0.03%    100.00% |           0      0.00%    100.00%
system.ruby.miss_latency_hist::total            11856                      
system.ruby.L1Cache.incomplete_times             1083                      
system.ruby.Directory.incomplete_times          10772                      
system.gpu.shader_mmu.pagewalkers00.walker.walks            0                       # Table walker walks requested
system.gpu.shader_mmu.pagewalkers00.walker.walkRequestOrigin_Requested::Data            0                       # Table walker requests started/completed, data/inst
system.gpu.shader_mmu.pagewalkers00.walker.walkRequestOrigin_Requested::Inst            0                       # Table walker requests started/completed, data/inst
system.gpu.shader_mmu.pagewalkers00.walker.walkRequestOrigin_Requested::total            0                       # Table walker requests started/completed, data/inst
system.gpu.shader_mmu.pagewalkers00.walker.walkRequestOrigin_Completed::Data            0                       # Table walker requests started/completed, data/inst
system.gpu.shader_mmu.pagewalkers00.walker.walkRequestOrigin_Completed::Inst            0                       # Table walker requests started/completed, data/inst
system.gpu.shader_mmu.pagewalkers00.walker.walkRequestOrigin_Completed::total            0                       # Table walker requests started/completed, data/inst
system.gpu.shader_mmu.pagewalkers00.walker.walkRequestOrigin::total            0                       # Table walker requests started/completed, data/inst
system.gpu.shader_mmu.pagewalkers00.inst_hits            0                       # ITB inst hits
system.gpu.shader_mmu.pagewalkers00.inst_misses            0                       # ITB inst misses
system.gpu.shader_mmu.pagewalkers00.read_hits            0                       # DTB read hits
system.gpu.shader_mmu.pagewalkers00.read_misses            0                       # DTB read misses
system.gpu.shader_mmu.pagewalkers00.write_hits            0                       # DTB write hits
system.gpu.shader_mmu.pagewalkers00.write_misses            0                       # DTB write misses
system.gpu.shader_mmu.pagewalkers00.flush_tlb            0                       # Number of times complete TLB was flushed
system.gpu.shader_mmu.pagewalkers00.flush_tlb_mva            0                       # Number of times TLB was flushed by MVA
system.gpu.shader_mmu.pagewalkers00.flush_tlb_mva_asid            0                       # Number of times TLB was flushed by MVA & ASID
system.gpu.shader_mmu.pagewalkers00.flush_tlb_asid            0                       # Number of times TLB was flushed by ASID
system.gpu.shader_mmu.pagewalkers00.flush_entries            0                       # Number of entries that have been flushed from TLB
system.gpu.shader_mmu.pagewalkers00.align_faults            0                       # Number of TLB faults due to alignment restrictions
system.gpu.shader_mmu.pagewalkers00.prefetch_faults            0                       # Number of TLB faults due to prefetch
system.gpu.shader_mmu.pagewalkers00.domain_faults            0                       # Number of TLB faults due to domain restrictions
system.gpu.shader_mmu.pagewalkers00.perms_faults            0                       # Number of TLB faults due to permissions restrictions
system.gpu.shader_mmu.pagewalkers00.read_accesses            0                       # DTB read accesses
system.gpu.shader_mmu.pagewalkers00.write_accesses            0                       # DTB write accesses
system.gpu.shader_mmu.pagewalkers00.inst_accesses            0                       # ITB inst accesses
system.gpu.shader_mmu.pagewalkers00.hits            0                       # DTB hits
system.gpu.shader_mmu.pagewalkers00.misses            0                       # DTB misses
system.gpu.shader_mmu.pagewalkers00.accesses            0                       # DTB accesses
system.gpu.shader_mmu.pagewalkers01.walker.walks            0                       # Table walker walks requested
system.gpu.shader_mmu.pagewalkers01.walker.walkRequestOrigin_Requested::Data            0                       # Table walker requests started/completed, data/inst
system.gpu.shader_mmu.pagewalkers01.walker.walkRequestOrigin_Requested::Inst            0                       # Table walker requests started/completed, data/inst
system.gpu.shader_mmu.pagewalkers01.walker.walkRequestOrigin_Requested::total            0                       # Table walker requests started/completed, data/inst
system.gpu.shader_mmu.pagewalkers01.walker.walkRequestOrigin_Completed::Data            0                       # Table walker requests started/completed, data/inst
system.gpu.shader_mmu.pagewalkers01.walker.walkRequestOrigin_Completed::Inst            0                       # Table walker requests started/completed, data/inst
system.gpu.shader_mmu.pagewalkers01.walker.walkRequestOrigin_Completed::total            0                       # Table walker requests started/completed, data/inst
system.gpu.shader_mmu.pagewalkers01.walker.walkRequestOrigin::total            0                       # Table walker requests started/completed, data/inst
system.gpu.shader_mmu.pagewalkers01.inst_hits            0                       # ITB inst hits
system.gpu.shader_mmu.pagewalkers01.inst_misses            0                       # ITB inst misses
system.gpu.shader_mmu.pagewalkers01.read_hits            0                       # DTB read hits
system.gpu.shader_mmu.pagewalkers01.read_misses            0                       # DTB read misses
system.gpu.shader_mmu.pagewalkers01.write_hits            0                       # DTB write hits
system.gpu.shader_mmu.pagewalkers01.write_misses            0                       # DTB write misses
system.gpu.shader_mmu.pagewalkers01.flush_tlb            0                       # Number of times complete TLB was flushed
system.gpu.shader_mmu.pagewalkers01.flush_tlb_mva            0                       # Number of times TLB was flushed by MVA
system.gpu.shader_mmu.pagewalkers01.flush_tlb_mva_asid            0                       # Number of times TLB was flushed by MVA & ASID
system.gpu.shader_mmu.pagewalkers01.flush_tlb_asid            0                       # Number of times TLB was flushed by ASID
system.gpu.shader_mmu.pagewalkers01.flush_entries            0                       # Number of entries that have been flushed from TLB
system.gpu.shader_mmu.pagewalkers01.align_faults            0                       # Number of TLB faults due to alignment restrictions
system.gpu.shader_mmu.pagewalkers01.prefetch_faults            0                       # Number of TLB faults due to prefetch
system.gpu.shader_mmu.pagewalkers01.domain_faults            0                       # Number of TLB faults due to domain restrictions
system.gpu.shader_mmu.pagewalkers01.perms_faults            0                       # Number of TLB faults due to permissions restrictions
system.gpu.shader_mmu.pagewalkers01.read_accesses            0                       # DTB read accesses
system.gpu.shader_mmu.pagewalkers01.write_accesses            0                       # DTB write accesses
system.gpu.shader_mmu.pagewalkers01.inst_accesses            0                       # ITB inst accesses
system.gpu.shader_mmu.pagewalkers01.hits            0                       # DTB hits
system.gpu.shader_mmu.pagewalkers01.misses            0                       # DTB misses
system.gpu.shader_mmu.pagewalkers01.accesses            0                       # DTB accesses
system.gpu.shader_mmu.pagewalkers02.walker.walks            0                       # Table walker walks requested
system.gpu.shader_mmu.pagewalkers02.walker.walkRequestOrigin_Requested::Data            0                       # Table walker requests started/completed, data/inst
system.gpu.shader_mmu.pagewalkers02.walker.walkRequestOrigin_Requested::Inst            0                       # Table walker requests started/completed, data/inst
system.gpu.shader_mmu.pagewalkers02.walker.walkRequestOrigin_Requested::total            0                       # Table walker requests started/completed, data/inst
system.gpu.shader_mmu.pagewalkers02.walker.walkRequestOrigin_Completed::Data            0                       # Table walker requests started/completed, data/inst
system.gpu.shader_mmu.pagewalkers02.walker.walkRequestOrigin_Completed::Inst            0                       # Table walker requests started/completed, data/inst
system.gpu.shader_mmu.pagewalkers02.walker.walkRequestOrigin_Completed::total            0                       # Table walker requests started/completed, data/inst
system.gpu.shader_mmu.pagewalkers02.walker.walkRequestOrigin::total            0                       # Table walker requests started/completed, data/inst
system.gpu.shader_mmu.pagewalkers02.inst_hits            0                       # ITB inst hits
system.gpu.shader_mmu.pagewalkers02.inst_misses            0                       # ITB inst misses
system.gpu.shader_mmu.pagewalkers02.read_hits            0                       # DTB read hits
system.gpu.shader_mmu.pagewalkers02.read_misses            0                       # DTB read misses
system.gpu.shader_mmu.pagewalkers02.write_hits            0                       # DTB write hits
system.gpu.shader_mmu.pagewalkers02.write_misses            0                       # DTB write misses
system.gpu.shader_mmu.pagewalkers02.flush_tlb            0                       # Number of times complete TLB was flushed
system.gpu.shader_mmu.pagewalkers02.flush_tlb_mva            0                       # Number of times TLB was flushed by MVA
system.gpu.shader_mmu.pagewalkers02.flush_tlb_mva_asid            0                       # Number of times TLB was flushed by MVA & ASID
system.gpu.shader_mmu.pagewalkers02.flush_tlb_asid            0                       # Number of times TLB was flushed by ASID
system.gpu.shader_mmu.pagewalkers02.flush_entries            0                       # Number of entries that have been flushed from TLB
system.gpu.shader_mmu.pagewalkers02.align_faults            0                       # Number of TLB faults due to alignment restrictions
system.gpu.shader_mmu.pagewalkers02.prefetch_faults            0                       # Number of TLB faults due to prefetch
system.gpu.shader_mmu.pagewalkers02.domain_faults            0                       # Number of TLB faults due to domain restrictions
system.gpu.shader_mmu.pagewalkers02.perms_faults            0                       # Number of TLB faults due to permissions restrictions
system.gpu.shader_mmu.pagewalkers02.read_accesses            0                       # DTB read accesses
system.gpu.shader_mmu.pagewalkers02.write_accesses            0                       # DTB write accesses
system.gpu.shader_mmu.pagewalkers02.inst_accesses            0                       # ITB inst accesses
system.gpu.shader_mmu.pagewalkers02.hits            0                       # DTB hits
system.gpu.shader_mmu.pagewalkers02.misses            0                       # DTB misses
system.gpu.shader_mmu.pagewalkers02.accesses            0                       # DTB accesses
system.gpu.shader_mmu.pagewalkers03.walker.walks            0                       # Table walker walks requested
system.gpu.shader_mmu.pagewalkers03.walker.walkRequestOrigin_Requested::Data            0                       # Table walker requests started/completed, data/inst
system.gpu.shader_mmu.pagewalkers03.walker.walkRequestOrigin_Requested::Inst            0                       # Table walker requests started/completed, data/inst
system.gpu.shader_mmu.pagewalkers03.walker.walkRequestOrigin_Requested::total            0                       # Table walker requests started/completed, data/inst
system.gpu.shader_mmu.pagewalkers03.walker.walkRequestOrigin_Completed::Data            0                       # Table walker requests started/completed, data/inst
system.gpu.shader_mmu.pagewalkers03.walker.walkRequestOrigin_Completed::Inst            0                       # Table walker requests started/completed, data/inst
system.gpu.shader_mmu.pagewalkers03.walker.walkRequestOrigin_Completed::total            0                       # Table walker requests started/completed, data/inst
system.gpu.shader_mmu.pagewalkers03.walker.walkRequestOrigin::total            0                       # Table walker requests started/completed, data/inst
system.gpu.shader_mmu.pagewalkers03.inst_hits            0                       # ITB inst hits
system.gpu.shader_mmu.pagewalkers03.inst_misses            0                       # ITB inst misses
system.gpu.shader_mmu.pagewalkers03.read_hits            0                       # DTB read hits
system.gpu.shader_mmu.pagewalkers03.read_misses            0                       # DTB read misses
system.gpu.shader_mmu.pagewalkers03.write_hits            0                       # DTB write hits
system.gpu.shader_mmu.pagewalkers03.write_misses            0                       # DTB write misses
system.gpu.shader_mmu.pagewalkers03.flush_tlb            0                       # Number of times complete TLB was flushed
system.gpu.shader_mmu.pagewalkers03.flush_tlb_mva            0                       # Number of times TLB was flushed by MVA
system.gpu.shader_mmu.pagewalkers03.flush_tlb_mva_asid            0                       # Number of times TLB was flushed by MVA & ASID
system.gpu.shader_mmu.pagewalkers03.flush_tlb_asid            0                       # Number of times TLB was flushed by ASID
system.gpu.shader_mmu.pagewalkers03.flush_entries            0                       # Number of entries that have been flushed from TLB
system.gpu.shader_mmu.pagewalkers03.align_faults            0                       # Number of TLB faults due to alignment restrictions
system.gpu.shader_mmu.pagewalkers03.prefetch_faults            0                       # Number of TLB faults due to prefetch
system.gpu.shader_mmu.pagewalkers03.domain_faults            0                       # Number of TLB faults due to domain restrictions
system.gpu.shader_mmu.pagewalkers03.perms_faults            0                       # Number of TLB faults due to permissions restrictions
system.gpu.shader_mmu.pagewalkers03.read_accesses            0                       # DTB read accesses
system.gpu.shader_mmu.pagewalkers03.write_accesses            0                       # DTB write accesses
system.gpu.shader_mmu.pagewalkers03.inst_accesses            0                       # ITB inst accesses
system.gpu.shader_mmu.pagewalkers03.hits            0                       # DTB hits
system.gpu.shader_mmu.pagewalkers03.misses            0                       # DTB misses
system.gpu.shader_mmu.pagewalkers03.accesses            0                       # DTB accesses
system.gpu.shader_mmu.pagewalkers04.walker.walks            0                       # Table walker walks requested
system.gpu.shader_mmu.pagewalkers04.walker.walkRequestOrigin_Requested::Data            0                       # Table walker requests started/completed, data/inst
system.gpu.shader_mmu.pagewalkers04.walker.walkRequestOrigin_Requested::Inst            0                       # Table walker requests started/completed, data/inst
system.gpu.shader_mmu.pagewalkers04.walker.walkRequestOrigin_Requested::total            0                       # Table walker requests started/completed, data/inst
system.gpu.shader_mmu.pagewalkers04.walker.walkRequestOrigin_Completed::Data            0                       # Table walker requests started/completed, data/inst
system.gpu.shader_mmu.pagewalkers04.walker.walkRequestOrigin_Completed::Inst            0                       # Table walker requests started/completed, data/inst
system.gpu.shader_mmu.pagewalkers04.walker.walkRequestOrigin_Completed::total            0                       # Table walker requests started/completed, data/inst
system.gpu.shader_mmu.pagewalkers04.walker.walkRequestOrigin::total            0                       # Table walker requests started/completed, data/inst
system.gpu.shader_mmu.pagewalkers04.inst_hits            0                       # ITB inst hits
system.gpu.shader_mmu.pagewalkers04.inst_misses            0                       # ITB inst misses
system.gpu.shader_mmu.pagewalkers04.read_hits            0                       # DTB read hits
system.gpu.shader_mmu.pagewalkers04.read_misses            0                       # DTB read misses
system.gpu.shader_mmu.pagewalkers04.write_hits            0                       # DTB write hits
system.gpu.shader_mmu.pagewalkers04.write_misses            0                       # DTB write misses
system.gpu.shader_mmu.pagewalkers04.flush_tlb            0                       # Number of times complete TLB was flushed
system.gpu.shader_mmu.pagewalkers04.flush_tlb_mva            0                       # Number of times TLB was flushed by MVA
system.gpu.shader_mmu.pagewalkers04.flush_tlb_mva_asid            0                       # Number of times TLB was flushed by MVA & ASID
system.gpu.shader_mmu.pagewalkers04.flush_tlb_asid            0                       # Number of times TLB was flushed by ASID
system.gpu.shader_mmu.pagewalkers04.flush_entries            0                       # Number of entries that have been flushed from TLB
system.gpu.shader_mmu.pagewalkers04.align_faults            0                       # Number of TLB faults due to alignment restrictions
system.gpu.shader_mmu.pagewalkers04.prefetch_faults            0                       # Number of TLB faults due to prefetch
system.gpu.shader_mmu.pagewalkers04.domain_faults            0                       # Number of TLB faults due to domain restrictions
system.gpu.shader_mmu.pagewalkers04.perms_faults            0                       # Number of TLB faults due to permissions restrictions
system.gpu.shader_mmu.pagewalkers04.read_accesses            0                       # DTB read accesses
system.gpu.shader_mmu.pagewalkers04.write_accesses            0                       # DTB write accesses
system.gpu.shader_mmu.pagewalkers04.inst_accesses            0                       # ITB inst accesses
system.gpu.shader_mmu.pagewalkers04.hits            0                       # DTB hits
system.gpu.shader_mmu.pagewalkers04.misses            0                       # DTB misses
system.gpu.shader_mmu.pagewalkers04.accesses            0                       # DTB accesses
system.gpu.shader_mmu.pagewalkers05.walker.walks            0                       # Table walker walks requested
system.gpu.shader_mmu.pagewalkers05.walker.walkRequestOrigin_Requested::Data            0                       # Table walker requests started/completed, data/inst
system.gpu.shader_mmu.pagewalkers05.walker.walkRequestOrigin_Requested::Inst            0                       # Table walker requests started/completed, data/inst
system.gpu.shader_mmu.pagewalkers05.walker.walkRequestOrigin_Requested::total            0                       # Table walker requests started/completed, data/inst
system.gpu.shader_mmu.pagewalkers05.walker.walkRequestOrigin_Completed::Data            0                       # Table walker requests started/completed, data/inst
system.gpu.shader_mmu.pagewalkers05.walker.walkRequestOrigin_Completed::Inst            0                       # Table walker requests started/completed, data/inst
system.gpu.shader_mmu.pagewalkers05.walker.walkRequestOrigin_Completed::total            0                       # Table walker requests started/completed, data/inst
system.gpu.shader_mmu.pagewalkers05.walker.walkRequestOrigin::total            0                       # Table walker requests started/completed, data/inst
system.gpu.shader_mmu.pagewalkers05.inst_hits            0                       # ITB inst hits
system.gpu.shader_mmu.pagewalkers05.inst_misses            0                       # ITB inst misses
system.gpu.shader_mmu.pagewalkers05.read_hits            0                       # DTB read hits
system.gpu.shader_mmu.pagewalkers05.read_misses            0                       # DTB read misses
system.gpu.shader_mmu.pagewalkers05.write_hits            0                       # DTB write hits
system.gpu.shader_mmu.pagewalkers05.write_misses            0                       # DTB write misses
system.gpu.shader_mmu.pagewalkers05.flush_tlb            0                       # Number of times complete TLB was flushed
system.gpu.shader_mmu.pagewalkers05.flush_tlb_mva            0                       # Number of times TLB was flushed by MVA
system.gpu.shader_mmu.pagewalkers05.flush_tlb_mva_asid            0                       # Number of times TLB was flushed by MVA & ASID
system.gpu.shader_mmu.pagewalkers05.flush_tlb_asid            0                       # Number of times TLB was flushed by ASID
system.gpu.shader_mmu.pagewalkers05.flush_entries            0                       # Number of entries that have been flushed from TLB
system.gpu.shader_mmu.pagewalkers05.align_faults            0                       # Number of TLB faults due to alignment restrictions
system.gpu.shader_mmu.pagewalkers05.prefetch_faults            0                       # Number of TLB faults due to prefetch
system.gpu.shader_mmu.pagewalkers05.domain_faults            0                       # Number of TLB faults due to domain restrictions
system.gpu.shader_mmu.pagewalkers05.perms_faults            0                       # Number of TLB faults due to permissions restrictions
system.gpu.shader_mmu.pagewalkers05.read_accesses            0                       # DTB read accesses
system.gpu.shader_mmu.pagewalkers05.write_accesses            0                       # DTB write accesses
system.gpu.shader_mmu.pagewalkers05.inst_accesses            0                       # ITB inst accesses
system.gpu.shader_mmu.pagewalkers05.hits            0                       # DTB hits
system.gpu.shader_mmu.pagewalkers05.misses            0                       # DTB misses
system.gpu.shader_mmu.pagewalkers05.accesses            0                       # DTB accesses
system.gpu.shader_mmu.pagewalkers06.walker.walks            0                       # Table walker walks requested
system.gpu.shader_mmu.pagewalkers06.walker.walkRequestOrigin_Requested::Data            0                       # Table walker requests started/completed, data/inst
system.gpu.shader_mmu.pagewalkers06.walker.walkRequestOrigin_Requested::Inst            0                       # Table walker requests started/completed, data/inst
system.gpu.shader_mmu.pagewalkers06.walker.walkRequestOrigin_Requested::total            0                       # Table walker requests started/completed, data/inst
system.gpu.shader_mmu.pagewalkers06.walker.walkRequestOrigin_Completed::Data            0                       # Table walker requests started/completed, data/inst
system.gpu.shader_mmu.pagewalkers06.walker.walkRequestOrigin_Completed::Inst            0                       # Table walker requests started/completed, data/inst
system.gpu.shader_mmu.pagewalkers06.walker.walkRequestOrigin_Completed::total            0                       # Table walker requests started/completed, data/inst
system.gpu.shader_mmu.pagewalkers06.walker.walkRequestOrigin::total            0                       # Table walker requests started/completed, data/inst
system.gpu.shader_mmu.pagewalkers06.inst_hits            0                       # ITB inst hits
system.gpu.shader_mmu.pagewalkers06.inst_misses            0                       # ITB inst misses
system.gpu.shader_mmu.pagewalkers06.read_hits            0                       # DTB read hits
system.gpu.shader_mmu.pagewalkers06.read_misses            0                       # DTB read misses
system.gpu.shader_mmu.pagewalkers06.write_hits            0                       # DTB write hits
system.gpu.shader_mmu.pagewalkers06.write_misses            0                       # DTB write misses
system.gpu.shader_mmu.pagewalkers06.flush_tlb            0                       # Number of times complete TLB was flushed
system.gpu.shader_mmu.pagewalkers06.flush_tlb_mva            0                       # Number of times TLB was flushed by MVA
system.gpu.shader_mmu.pagewalkers06.flush_tlb_mva_asid            0                       # Number of times TLB was flushed by MVA & ASID
system.gpu.shader_mmu.pagewalkers06.flush_tlb_asid            0                       # Number of times TLB was flushed by ASID
system.gpu.shader_mmu.pagewalkers06.flush_entries            0                       # Number of entries that have been flushed from TLB
system.gpu.shader_mmu.pagewalkers06.align_faults            0                       # Number of TLB faults due to alignment restrictions
system.gpu.shader_mmu.pagewalkers06.prefetch_faults            0                       # Number of TLB faults due to prefetch
system.gpu.shader_mmu.pagewalkers06.domain_faults            0                       # Number of TLB faults due to domain restrictions
system.gpu.shader_mmu.pagewalkers06.perms_faults            0                       # Number of TLB faults due to permissions restrictions
system.gpu.shader_mmu.pagewalkers06.read_accesses            0                       # DTB read accesses
system.gpu.shader_mmu.pagewalkers06.write_accesses            0                       # DTB write accesses
system.gpu.shader_mmu.pagewalkers06.inst_accesses            0                       # ITB inst accesses
system.gpu.shader_mmu.pagewalkers06.hits            0                       # DTB hits
system.gpu.shader_mmu.pagewalkers06.misses            0                       # DTB misses
system.gpu.shader_mmu.pagewalkers06.accesses            0                       # DTB accesses
system.gpu.shader_mmu.pagewalkers07.walker.walks            0                       # Table walker walks requested
system.gpu.shader_mmu.pagewalkers07.walker.walkRequestOrigin_Requested::Data            0                       # Table walker requests started/completed, data/inst
system.gpu.shader_mmu.pagewalkers07.walker.walkRequestOrigin_Requested::Inst            0                       # Table walker requests started/completed, data/inst
system.gpu.shader_mmu.pagewalkers07.walker.walkRequestOrigin_Requested::total            0                       # Table walker requests started/completed, data/inst
system.gpu.shader_mmu.pagewalkers07.walker.walkRequestOrigin_Completed::Data            0                       # Table walker requests started/completed, data/inst
system.gpu.shader_mmu.pagewalkers07.walker.walkRequestOrigin_Completed::Inst            0                       # Table walker requests started/completed, data/inst
system.gpu.shader_mmu.pagewalkers07.walker.walkRequestOrigin_Completed::total            0                       # Table walker requests started/completed, data/inst
system.gpu.shader_mmu.pagewalkers07.walker.walkRequestOrigin::total            0                       # Table walker requests started/completed, data/inst
system.gpu.shader_mmu.pagewalkers07.inst_hits            0                       # ITB inst hits
system.gpu.shader_mmu.pagewalkers07.inst_misses            0                       # ITB inst misses
system.gpu.shader_mmu.pagewalkers07.read_hits            0                       # DTB read hits
system.gpu.shader_mmu.pagewalkers07.read_misses            0                       # DTB read misses
system.gpu.shader_mmu.pagewalkers07.write_hits            0                       # DTB write hits
system.gpu.shader_mmu.pagewalkers07.write_misses            0                       # DTB write misses
system.gpu.shader_mmu.pagewalkers07.flush_tlb            0                       # Number of times complete TLB was flushed
system.gpu.shader_mmu.pagewalkers07.flush_tlb_mva            0                       # Number of times TLB was flushed by MVA
system.gpu.shader_mmu.pagewalkers07.flush_tlb_mva_asid            0                       # Number of times TLB was flushed by MVA & ASID
system.gpu.shader_mmu.pagewalkers07.flush_tlb_asid            0                       # Number of times TLB was flushed by ASID
system.gpu.shader_mmu.pagewalkers07.flush_entries            0                       # Number of entries that have been flushed from TLB
system.gpu.shader_mmu.pagewalkers07.align_faults            0                       # Number of TLB faults due to alignment restrictions
system.gpu.shader_mmu.pagewalkers07.prefetch_faults            0                       # Number of TLB faults due to prefetch
system.gpu.shader_mmu.pagewalkers07.domain_faults            0                       # Number of TLB faults due to domain restrictions
system.gpu.shader_mmu.pagewalkers07.perms_faults            0                       # Number of TLB faults due to permissions restrictions
system.gpu.shader_mmu.pagewalkers07.read_accesses            0                       # DTB read accesses
system.gpu.shader_mmu.pagewalkers07.write_accesses            0                       # DTB write accesses
system.gpu.shader_mmu.pagewalkers07.inst_accesses            0                       # ITB inst accesses
system.gpu.shader_mmu.pagewalkers07.hits            0                       # DTB hits
system.gpu.shader_mmu.pagewalkers07.misses            0                       # DTB misses
system.gpu.shader_mmu.pagewalkers07.accesses            0                       # DTB accesses
system.gpu.shader_mmu.pagewalkers08.walker.walks            0                       # Table walker walks requested
system.gpu.shader_mmu.pagewalkers08.walker.walkRequestOrigin_Requested::Data            0                       # Table walker requests started/completed, data/inst
system.gpu.shader_mmu.pagewalkers08.walker.walkRequestOrigin_Requested::Inst            0                       # Table walker requests started/completed, data/inst
system.gpu.shader_mmu.pagewalkers08.walker.walkRequestOrigin_Requested::total            0                       # Table walker requests started/completed, data/inst
system.gpu.shader_mmu.pagewalkers08.walker.walkRequestOrigin_Completed::Data            0                       # Table walker requests started/completed, data/inst
system.gpu.shader_mmu.pagewalkers08.walker.walkRequestOrigin_Completed::Inst            0                       # Table walker requests started/completed, data/inst
system.gpu.shader_mmu.pagewalkers08.walker.walkRequestOrigin_Completed::total            0                       # Table walker requests started/completed, data/inst
system.gpu.shader_mmu.pagewalkers08.walker.walkRequestOrigin::total            0                       # Table walker requests started/completed, data/inst
system.gpu.shader_mmu.pagewalkers08.inst_hits            0                       # ITB inst hits
system.gpu.shader_mmu.pagewalkers08.inst_misses            0                       # ITB inst misses
system.gpu.shader_mmu.pagewalkers08.read_hits            0                       # DTB read hits
system.gpu.shader_mmu.pagewalkers08.read_misses            0                       # DTB read misses
system.gpu.shader_mmu.pagewalkers08.write_hits            0                       # DTB write hits
system.gpu.shader_mmu.pagewalkers08.write_misses            0                       # DTB write misses
system.gpu.shader_mmu.pagewalkers08.flush_tlb            0                       # Number of times complete TLB was flushed
system.gpu.shader_mmu.pagewalkers08.flush_tlb_mva            0                       # Number of times TLB was flushed by MVA
system.gpu.shader_mmu.pagewalkers08.flush_tlb_mva_asid            0                       # Number of times TLB was flushed by MVA & ASID
system.gpu.shader_mmu.pagewalkers08.flush_tlb_asid            0                       # Number of times TLB was flushed by ASID
system.gpu.shader_mmu.pagewalkers08.flush_entries            0                       # Number of entries that have been flushed from TLB
system.gpu.shader_mmu.pagewalkers08.align_faults            0                       # Number of TLB faults due to alignment restrictions
system.gpu.shader_mmu.pagewalkers08.prefetch_faults            0                       # Number of TLB faults due to prefetch
system.gpu.shader_mmu.pagewalkers08.domain_faults            0                       # Number of TLB faults due to domain restrictions
system.gpu.shader_mmu.pagewalkers08.perms_faults            0                       # Number of TLB faults due to permissions restrictions
system.gpu.shader_mmu.pagewalkers08.read_accesses            0                       # DTB read accesses
system.gpu.shader_mmu.pagewalkers08.write_accesses            0                       # DTB write accesses
system.gpu.shader_mmu.pagewalkers08.inst_accesses            0                       # ITB inst accesses
system.gpu.shader_mmu.pagewalkers08.hits            0                       # DTB hits
system.gpu.shader_mmu.pagewalkers08.misses            0                       # DTB misses
system.gpu.shader_mmu.pagewalkers08.accesses            0                       # DTB accesses
system.gpu.shader_mmu.pagewalkers09.walker.walks            0                       # Table walker walks requested
system.gpu.shader_mmu.pagewalkers09.walker.walkRequestOrigin_Requested::Data            0                       # Table walker requests started/completed, data/inst
system.gpu.shader_mmu.pagewalkers09.walker.walkRequestOrigin_Requested::Inst            0                       # Table walker requests started/completed, data/inst
system.gpu.shader_mmu.pagewalkers09.walker.walkRequestOrigin_Requested::total            0                       # Table walker requests started/completed, data/inst
system.gpu.shader_mmu.pagewalkers09.walker.walkRequestOrigin_Completed::Data            0                       # Table walker requests started/completed, data/inst
system.gpu.shader_mmu.pagewalkers09.walker.walkRequestOrigin_Completed::Inst            0                       # Table walker requests started/completed, data/inst
system.gpu.shader_mmu.pagewalkers09.walker.walkRequestOrigin_Completed::total            0                       # Table walker requests started/completed, data/inst
system.gpu.shader_mmu.pagewalkers09.walker.walkRequestOrigin::total            0                       # Table walker requests started/completed, data/inst
system.gpu.shader_mmu.pagewalkers09.inst_hits            0                       # ITB inst hits
system.gpu.shader_mmu.pagewalkers09.inst_misses            0                       # ITB inst misses
system.gpu.shader_mmu.pagewalkers09.read_hits            0                       # DTB read hits
system.gpu.shader_mmu.pagewalkers09.read_misses            0                       # DTB read misses
system.gpu.shader_mmu.pagewalkers09.write_hits            0                       # DTB write hits
system.gpu.shader_mmu.pagewalkers09.write_misses            0                       # DTB write misses
system.gpu.shader_mmu.pagewalkers09.flush_tlb            0                       # Number of times complete TLB was flushed
system.gpu.shader_mmu.pagewalkers09.flush_tlb_mva            0                       # Number of times TLB was flushed by MVA
system.gpu.shader_mmu.pagewalkers09.flush_tlb_mva_asid            0                       # Number of times TLB was flushed by MVA & ASID
system.gpu.shader_mmu.pagewalkers09.flush_tlb_asid            0                       # Number of times TLB was flushed by ASID
system.gpu.shader_mmu.pagewalkers09.flush_entries            0                       # Number of entries that have been flushed from TLB
system.gpu.shader_mmu.pagewalkers09.align_faults            0                       # Number of TLB faults due to alignment restrictions
system.gpu.shader_mmu.pagewalkers09.prefetch_faults            0                       # Number of TLB faults due to prefetch
system.gpu.shader_mmu.pagewalkers09.domain_faults            0                       # Number of TLB faults due to domain restrictions
system.gpu.shader_mmu.pagewalkers09.perms_faults            0                       # Number of TLB faults due to permissions restrictions
system.gpu.shader_mmu.pagewalkers09.read_accesses            0                       # DTB read accesses
system.gpu.shader_mmu.pagewalkers09.write_accesses            0                       # DTB write accesses
system.gpu.shader_mmu.pagewalkers09.inst_accesses            0                       # ITB inst accesses
system.gpu.shader_mmu.pagewalkers09.hits            0                       # DTB hits
system.gpu.shader_mmu.pagewalkers09.misses            0                       # DTB misses
system.gpu.shader_mmu.pagewalkers09.accesses            0                       # DTB accesses
system.gpu.shader_mmu.pagewalkers10.walker.walks            0                       # Table walker walks requested
[...]
system.ruby.Directory.miss_mach_latency_hist::total        10773                      
system.ruby.Directory.miss_latency_hist.issue_to_initial_request::bucket_size            1                      
system.ruby.Directory.miss_latency_hist.issue_to_initial_request::max_bucket            9                      
system.ruby.Directory.miss_latency_hist.issue_to_initial_request::samples            1                      
system.ruby.Directory.miss_latency_hist.issue_to_initial_request::stdev          nan                      
system.ruby.Directory.miss_latency_hist.issue_to_initial_request |           1    100.00%    100.00% |           0      0.00%    100.00% |           0      0.00%    100.00% |           0      0.00%    100.00% |           0      0.00%    100.00% |           0      0.00%    100.00% |           0      0.00%    100.00% |           0      0.00%    100.00% |           0      0.00%    100.00% |           0      0.00%    100.00%
system.ruby.Directory.miss_latency_hist.issue_to_initial_request::total            1                      
system.ruby.Directory.miss_latency_hist.initial_to_forward::bucket_size            1                      
system.ruby.Directory.miss_latency_hist.initial_to_forward::max_bucket            9                      
system.ruby.Directory.miss_latency_hist.initial_to_forward::samples            1                      
system.ruby.Directory.miss_latency_hist.initial_to_forward::stdev          nan                      
system.ruby.Directory.miss_latency_hist.initial_to_forward |           1    100.00%    100.00% |           0      0.00%    100.00% |           0      0.00%    100.00% |           0      0.00%    100.00% |           0      0.00%    100.00% |           0      0.00%    100.00% |           0      0.00%    100.00% |           0      0.00%    100.00% |           0      0.00%    100.00% |           0      0.00%    100.00%
system.ruby.Directory.miss_latency_hist.initial_to_forward::total            1                      
system.ruby.Directory.miss_latency_hist.forward_to_first_response::bucket_size            1                      
system.ruby.Directory.miss_latency_hist.forward_to_first_response::max_bucket            9                      
system.ruby.Directory.miss_latency_hist.forward_to_first_response::samples            1                      
system.ruby.Directory.miss_latency_hist.forward_to_first_response::stdev          nan                      
system.ruby.Directory.miss_latency_hist.forward_to_first_response |           1    100.00%    100.00% |           0      0.00%    100.00% |           0      0.00%    100.00% |           0      0.00%    100.00% |           0      0.00%    100.00% |           0      0.00%    100.00% |           0      0.00%    100.00% |           0      0.00%    100.00% |           0      0.00%    100.00% |           0      0.00%    100.00%
system.ruby.Directory.miss_latency_hist.forward_to_first_response::total            1                      
system.ruby.Directory.miss_latency_hist.first_response_to_completion::bucket_size           16                      
system.ruby.Directory.miss_latency_hist.first_response_to_completion::max_bucket          159                      
system.ruby.Directory.miss_latency_hist.first_response_to_completion::samples            1                      
system.ruby.Directory.miss_latency_hist.first_response_to_completion::mean          153                      
system.ruby.Directory.miss_latency_hist.first_response_to_completion::gmean   153.000000                      
system.ruby.Directory.miss_latency_hist.first_response_to_completion::stdev          nan                      
system.ruby.Directory.miss_latency_hist.first_response_to_completion |           0      0.00%      0.00% |           0      0.00%      0.00% |           0      0.00%      0.00% |           0      0.00%      0.00% |           0      0.00%      0.00% |           0      0.00%      0.00% |           0      0.00%      0.00% |           0      0.00%      0.00% |           0      0.00%      0.00% |           1    100.00%    100.00%
system.ruby.Directory.miss_latency_hist.first_response_to_completion::total            1                      
system.ruby.LD.L1Cache.miss_type_mach_latency_hist::bucket_size          256                      
system.ruby.LD.L1Cache.miss_type_mach_latency_hist::max_bucket         2559                      
system.ruby.LD.L1Cache.miss_type_mach_latency_hist::samples          806                      
system.ruby.LD.L1Cache.miss_type_mach_latency_hist::mean   430.805211                      
system.ruby.LD.L1Cache.miss_type_mach_latency_hist::gmean   168.316197                      
system.ruby.LD.L1Cache.miss_type_mach_latency_hist::stdev   556.502736                      
system.ruby.LD.L1Cache.miss_type_mach_latency_hist |         542     67.25%     67.25% |          29      3.60%     70.84% |          18      2.23%     73.08% |          30      3.72%     76.80% |          49      6.08%     82.88% |         109     13.52%     96.40% |          29      3.60%    100.00% |           0      0.00%    100.00% |           0      0.00%    100.00% |           0      0.00%    100.00%
system.ruby.LD.L1Cache.miss_type_mach_latency_hist::total          806                      
system.ruby.LD.Directory.miss_type_mach_latency_hist::bucket_size          256                      
system.ruby.LD.Directory.miss_type_mach_latency_hist::max_bucket         2559                      
system.ruby.LD.Directory.miss_type_mach_latency_hist::samples         3845                      
system.ruby.LD.Directory.miss_type_mach_latency_hist::mean   336.113394                      
system.ruby.LD.Directory.miss_type_mach_latency_hist::gmean   257.966498                      
system.ruby.LD.Directory.miss_type_mach_latency_hist::stdev   356.628769                      
system.ruby.LD.Directory.miss_type_mach_latency_hist |        3210     83.49%     83.49% |         132      3.43%     86.92% |          94      2.44%     89.36% |          94      2.44%     91.81% |          95      2.47%     94.28% |         128      3.33%     97.61% |          70      1.82%     99.43% |          19      0.49%     99.92% |           3      0.08%    100.00% |           0      0.00%    100.00%
system.ruby.LD.Directory.miss_type_mach_latency_hist::total         3845                      
system.ruby.ST.L1Cache.miss_type_mach_latency_hist::bucket_size          256                      
system.ruby.ST.L1Cache.miss_type_mach_latency_hist::max_bucket         2559                      
system.ruby.ST.L1Cache.miss_type_mach_latency_hist::samples          238                      
system.ruby.ST.L1Cache.miss_type_mach_latency_hist::mean   726.495798                      
system.ruby.ST.L1Cache.miss_type_mach_latency_hist::gmean   364.466126                      
system.ruby.ST.L1Cache.miss_type_mach_latency_hist::stdev   537.931903                      
system.ruby.ST.L1Cache.miss_type_mach_latency_hist |          86     36.13%     36.13% |           0      0.00%     36.13% |          17      7.14%     43.28% |          31     13.03%     56.30% |          74     31.09%     87.39% |          26     10.92%     98.32% |           4      1.68%    100.00% |           0      0.00%    100.00% |           0      0.00%    100.00% |           0      0.00%    100.00%
system.ruby.ST.L1Cache.miss_type_mach_latency_hist::total          238                      
system.ruby.ST.Directory.miss_type_mach_latency_hist::bucket_size          256                      
system.ruby.ST.Directory.miss_type_mach_latency_hist::max_bucket         2559                      
system.ruby.ST.Directory.miss_type_mach_latency_hist::samples         1426                      
system.ruby.ST.Directory.miss_type_mach_latency_hist::mean   566.414446                      
system.ruby.ST.Directory.miss_type_mach_latency_hist::gmean   335.510774                      
system.ruby.ST.Directory.miss_type_mach_latency_hist::stdev   620.969300                      
system.ruby.ST.Directory.miss_type_mach_latency_hist |        1028     72.09%     72.09% |           8      0.56%     72.65% |           4      0.28%     72.93% |           7      0.49%     73.42% |           2      0.14%     73.56% |         155     10.87%     84.43% |         202     14.17%     98.60% |          20      1.40%    100.00% |           0      0.00%    100.00% |           0      0.00%    100.00%
system.ruby.ST.Directory.miss_type_mach_latency_hist::total         1426                      
system.ruby.IFETCH.L1Cache.miss_type_mach_latency_hist::bucket_size          256                      
system.ruby.IFETCH.L1Cache.miss_type_mach_latency_hist::max_bucket         2559                      
system.ruby.IFETCH.L1Cache.miss_type_mach_latency_hist::samples           39                      
system.ruby.IFETCH.L1Cache.miss_type_mach_latency_hist::mean   230.205128                      
system.ruby.IFETCH.L1Cache.miss_type_mach_latency_hist::gmean   128.990328                      
system.ruby.IFETCH.L1Cache.miss_type_mach_latency_hist::stdev   373.653666                      
system.ruby.IFETCH.L1Cache.miss_type_mach_latency_hist |          35     89.74%     89.74% |           1      2.56%     92.31% |           0      0.00%     92.31% |           0      0.00%     92.31% |           0      0.00%     92.31% |           2      5.13%     97.44% |           1      2.56%    100.00% |           0      0.00%    100.00% |           0      0.00%    100.00% |           0      0.00%    100.00%
system.ruby.IFETCH.L1Cache.miss_type_mach_latency_hist::total           39                      
system.ruby.IFETCH.Directory.miss_type_mach_latency_hist::bucket_size          256                      
system.ruby.IFETCH.Directory.miss_type_mach_latency_hist::max_bucket         2559                      
system.ruby.IFETCH.Directory.miss_type_mach_latency_hist::samples         5498                      
system.ruby.IFETCH.Directory.miss_type_mach_latency_hist::mean   204.230993                      
system.ruby.IFETCH.Directory.miss_type_mach_latency_hist::gmean   203.616851                      
system.ruby.IFETCH.Directory.miss_type_mach_latency_hist::stdev    23.232539                      
system.ruby.IFETCH.Directory.miss_type_mach_latency_hist |        5460     99.31%     99.31% |          37      0.67%     99.98% |           0      0.00%     99.98% |           0      0.00%     99.98% |           0      0.00%     99.98% |           0      0.00%     99.98% |           1      0.02%    100.00% |           0      0.00%    100.00% |           0      0.00%    100.00% |           0      0.00%    100.00%
system.ruby.IFETCH.Directory.miss_type_mach_latency_hist::total         5498                      
system.ruby.Load_Linked.Directory.miss_type_mach_latency_hist::bucket_size           32                      
system.ruby.Load_Linked.Directory.miss_type_mach_latency_hist::max_bucket          319                      
system.ruby.Load_Linked.Directory.miss_type_mach_latency_hist::samples            4                      
system.ruby.Load_Linked.Directory.miss_type_mach_latency_hist::mean   191.250000                      
system.ruby.Load_Linked.Directory.miss_type_mach_latency_hist::gmean   189.763131                      
system.ruby.Load_Linked.Directory.miss_type_mach_latency_hist::stdev    26.183646                      
system.ruby.Load_Linked.Directory.miss_type_mach_latency_hist |           0      0.00%      0.00% |           0      0.00%      0.00% |           0      0.00%      0.00% |           0      0.00%      0.00% |           1     25.00%     25.00% |           0      0.00%     25.00% |           3     75.00%    100.00% |           0      0.00%    100.00% |           0      0.00%    100.00% |           0      0.00%    100.00%
system.ruby.Load_Linked.Directory.miss_type_mach_latency_hist::total            4                      
system.ruby.Directory_Controller.GETX           14977      0.00%      0.00%
system.ruby.Directory_Controller.PUTX           10141      0.00%      0.00%
system.ruby.Directory_Controller.Memory_Data        10773      0.00%      0.00%
system.ruby.Directory_Controller.Memory_Ack        10141      0.00%      0.00%
system.ruby.Directory_Controller.I.GETX         10773      0.00%      0.00%
system.ruby.Directory_Controller.M.GETX          1083      0.00%      0.00%
system.ruby.Directory_Controller.M.PUTX         10141      0.00%      0.00%
system.ruby.Directory_Controller.IM.GETX         3121      0.00%      0.00%
system.ruby.Directory_Controller.IM.Memory_Data        10773      0.00%      0.00%
system.ruby.Directory_Controller.MI.Memory_Ack        10141      0.00%      0.00%
system.ruby.L1Cache_Controller.Load      |     1031932     99.78%     99.78% |         428      0.04%     99.82% |         421      0.04%     99.86% |         428      0.04%     99.90% |         416      0.04%     99.94% |           0      0.00%     99.94% |         577      0.06%    100.00%
system.ruby.L1Cache_Controller.Load::total      1034202                      
system.ruby.L1Cache_Controller.Ifetch    |     5759651    100.00%    100.00% |          13      0.00%    100.00% |          13      0.00%    100.00% |          13      0.00%    100.00% |          13      0.00%    100.00% |           0      0.00%    100.00% |           0      0.00%    100.00%
system.ruby.L1Cache_Controller.Ifetch::total      5759703                      
system.ruby.L1Cache_Controller.Store     |      924413     99.84%     99.84% |         216      0.02%     99.87% |         226      0.02%     99.89% |         216      0.02%     99.91% |         224      0.02%     99.94% |           0      0.00%     99.94% |         577      0.06%    100.00%
system.ruby.L1Cache_Controller.Store::total       925872                      
system.ruby.L1Cache_Controller.Data      |        9698     81.80%     81.80% |         253      2.13%     83.93% |         242      2.04%     85.97% |         253      2.13%     88.11% |         256      2.16%     90.27% |           0      0.00%     90.27% |        1154      9.73%    100.00%
system.ruby.L1Cache_Controller.Data::total        11856                      
system.ruby.L1Cache_Controller.Fwd_GETX  |         183     16.90%     16.90% |         222     20.50%     37.40% |         207     19.11%     56.51% |         214     19.76%     76.27% |         213     19.67%     95.94% |           0      0.00%     95.94% |          44      4.06%    100.00%
system.ruby.L1Cache_Controller.Fwd_GETX::total         1083                      
system.ruby.L1Cache_Controller.Replacement |        9141     88.93%     88.93% |           0      0.00%     88.93% |           0      0.00%     88.93% |           0      0.00%     88.93% |           0      0.00%     88.93% |           0      0.00%     88.93% |        1138     11.07%    100.00%
system.ruby.L1Cache_Controller.Replacement::total        10279                      
system.ruby.L1Cache_Controller.Writeback_Ack |        9046     89.20%     89.20% |           0      0.00%     89.20% |           0      0.00%     89.20% |           0      0.00%     89.20% |           0      0.00%     89.20% |           0      0.00%     89.20% |        1095     10.80%    100.00%
system.ruby.L1Cache_Controller.Writeback_Ack::total        10141                      
system.ruby.L1Cache_Controller.I.Load    |        3201     68.82%     68.82% |         219      4.71%     73.53% |         214      4.60%     78.13% |         220      4.73%     82.86% |         220      4.73%     87.59% |           0      0.00%     87.59% |         577     12.41%    100.00%
system.ruby.L1Cache_Controller.I.Load::total         4651                      
system.ruby.L1Cache_Controller.I.Ifetch  |        5485     99.06%     99.06% |          13      0.23%     99.30% |          13      0.23%     99.53% |          13      0.23%     99.77% |          13      0.23%    100.00% |           0      0.00%    100.00% |           0      0.00%    100.00%
system.ruby.L1Cache_Controller.I.Ifetch::total         5537                      
system.ruby.L1Cache_Controller.I.Store   |        1012     60.67%     60.67% |          21      1.26%     61.93% |          15      0.90%     62.83% |          20      1.20%     64.03% |          23      1.38%     65.41% |           0      0.00%     65.41% |         577     34.59%    100.00%
system.ruby.L1Cache_Controller.I.Store::total         1668                      
system.ruby.L1Cache_Controller.I.Replacement |          95     68.84%     68.84% |           0      0.00%     68.84% |           0      0.00%     68.84% |           0      0.00%     68.84% |           0      0.00%     68.84% |           0      0.00%     68.84% |          43     31.16%    100.00%
system.ruby.L1Cache_Controller.I.Replacement::total          138                      
system.ruby.L1Cache_Controller.M.Load    |     1028731     99.92%     99.92% |         209      0.02%     99.94% |         207      0.02%     99.96% |         208      0.02%     99.98% |         196      0.02%    100.00% |           0      0.00%    100.00% |           0      0.00%    100.00%
system.ruby.L1Cache_Controller.M.Load::total      1029551                      
system.ruby.L1Cache_Controller.M.Ifetch  |     5754166    100.00%    100.00% |           0      0.00%    100.00% |           0      0.00%    100.00% |           0      0.00%    100.00% |           0      0.00%    100.00% |           0      0.00%    100.00% |           0      0.00%    100.00%
system.ruby.L1Cache_Controller.M.Ifetch::total      5754166                      
system.ruby.L1Cache_Controller.M.Store   |      923401     99.91%     99.91% |         195      0.02%     99.93% |         211      0.02%     99.96% |         196      0.02%     99.98% |         201      0.02%    100.00% |           0      0.00%    100.00% |           0      0.00%    100.00%
system.ruby.L1Cache_Controller.M.Store::total       924204                      
system.ruby.L1Cache_Controller.M.Fwd_GETX |         183     16.90%     16.90% |         222     20.50%     37.40% |         207     19.11%     56.51% |         214     19.76%     76.27% |         213     19.67%     95.94% |           0      0.00%     95.94% |          44      4.06%    100.00%
system.ruby.L1Cache_Controller.M.Fwd_GETX::total         1083                      
system.ruby.L1Cache_Controller.M.Replacement |        9046     89.20%     89.20% |           0      0.00%     89.20% |           0      0.00%     89.20% |           0      0.00%     89.20% |           0      0.00%     89.20% |           0      0.00%     89.20% |        1095     10.80%    100.00%
system.ruby.L1Cache_Controller.M.Replacement::total        10141                      
system.ruby.L1Cache_Controller.MI.Writeback_Ack |        9046     89.20%     89.20% |           0      0.00%     89.20% |           0      0.00%     89.20% |           0      0.00%     89.20% |           0      0.00%     89.20% |           0      0.00%     89.20% |        1095     10.80%    100.00%
system.ruby.L1Cache_Controller.MI.Writeback_Ack::total        10141                      
system.ruby.L1Cache_Controller.IS.Data   |        8686     85.26%     85.26% |         232      2.28%     87.53% |         227      2.23%     89.76% |         233      2.29%     92.05% |         233      2.29%     94.34% |           0      0.00%     94.34% |         577      5.66%    100.00%
system.ruby.L1Cache_Controller.IS.Data::total        10188                      
system.ruby.L1Cache_Controller.IM.Data   |        1012     60.67%     60.67% |          21      1.26%     61.93% |          15      0.90%     62.83% |          20      1.20%     64.03% |          23      1.38%     65.41% |           0      0.00%     65.41% |         577     34.59%    100.00%
system.ruby.L1Cache_Controller.IM.Data::total         1668                      

---------- End Simulation Statistics   ----------
