
---------- Begin Simulation Statistics ----------
sim_seconds                                  0.016422                       # Number of seconds simulated
sim_ticks                                 16422225000                       # Number of ticks simulated
final_tick                                16422225000                       # Number of ticks from beginning of simulation (restored from checkpoints and never reset)
sim_freq                                 1000000000000                       # Frequency of simulated ticks
host_inst_rate                                 192921                       # Simulator instruction rate (inst/s)
host_op_rate                                   224834                       # Simulator op (including micro ops) rate (op/s)
host_tick_rate                              631331442                       # Simulator tick rate (ticks/s)
host_mem_usage                                4502672                       # Number of bytes of host memory used
host_seconds                                    26.01                       # Real time elapsed on the host
sim_insts                                     5018259                       # Number of instructions simulated
sim_ops                                       5848386                       # Number of ops (including micro ops) simulated
system.voltage_domain.voltage                       1                       # Voltage in Volts
system.clk_domain.clock                          1000                       # Clock period in ticks
system.mem_ctrls.clk_domain.clock                2500                       # Clock period in ticks
system.mem_ctrls.bytes_read::ruby.dir_cntrl0      1371264                       # Number of bytes read from this memory
system.mem_ctrls.bytes_read::total            1371264                       # Number of bytes read from this memory
system.mem_ctrls.bytes_written::ruby.dir_cntrl0      1290496                       # Number of bytes written to this memory
system.mem_ctrls.bytes_written::total         1290496                       # Number of bytes written to this memory
system.mem_ctrls.num_reads::ruby.dir_cntrl0        10713                       # Number of read requests responded to by this memory
system.mem_ctrls.num_reads::total               10713                       # Number of read requests responded to by this memory
system.mem_ctrls.num_writes::ruby.dir_cntrl0        10082                       # Number of write requests responded to by this memory
system.mem_ctrls.num_writes::total              10082                       # Number of write requests responded to by this memory
system.mem_ctrls.bw_read::ruby.dir_cntrl0     83500500                       # Total read bandwidth from this memory (bytes/s)
system.mem_ctrls.bw_read::total              83500500                       # Total read bandwidth from this memory (bytes/s)
system.mem_ctrls.bw_write::ruby.dir_cntrl0     78582287                       # Write bandwidth from this memory (bytes/s)
system.mem_ctrls.bw_write::total             78582287                       # Write bandwidth from this memory (bytes/s)
system.mem_ctrls.bw_total::ruby.dir_cntrl0    162082787                       # Total bandwidth to/from this memory (bytes/s)
system.mem_ctrls.bw_total::total            162082787                       # Total bandwidth to/from this memory (bytes/s)
system.mem_ctrls.memReq                         20795                       # Total number of memory requests
system.mem_ctrls.memRead                        10713                       # Number of memory reads
system.mem_ctrls.memWrite                       10082                       # Number of memory writes
system.mem_ctrls.memRefresh                    102841                       # Number of memory refreshes
system.mem_ctrls.memWaitCycles                 125783                       # Delay stalled at the head of the bank queue
system.mem_ctrls.memInputQ                      11783                       # Delay in the input queue
system.mem_ctrls.memBankQ                       33080                       # Delay behind the head of the bank queue
system.mem_ctrls.totalStalls                   170646                       # Total number of stall cycles
system.mem_ctrls.stallsPerReq                8.206107                       # Expected number of stall cycles per request
system.mem_ctrls.memBankBusy                    93868                       # memory stalls due to busy bank
system.mem_ctrls.memBusBusy                     12121                       # memory stalls due to busy bus
system.mem_ctrls.memReadWriteBusy                2374                       # memory stalls due to read write turnaround
system.mem_ctrls.memDataBusBusy                  1601                       # memory stalls due to read read turnaround
system.mem_ctrls.memArbWait                      8568                       # memory stalls due to arbitration
system.mem_ctrls.memNotOld                       7251                       # memory stalls due to anti starvation
system.mem_ctrls.memBankCount            |         543      2.61%      2.61% |         125      0.60%      3.21% |         156      0.75%      3.96% |         617      2.97%      6.93% |         174      0.84%      7.77% |         138      0.66%      8.43% |         167      0.80%      9.23% |         186      0.89%     10.13% |         181      0.87%     11.00% |         189      0.91%     11.91% |        2040      9.81%     21.72% |       11426     54.95%     76.66% |         205      0.99%     77.65% |         240      1.15%     78.80% |         472      2.27%     81.07% |         201      0.97%     82.04% |         188      0.90%     82.94% |         178      0.86%     83.80% |         552      2.65%     86.45% |         419      2.01%     88.47% |         156      0.75%     89.22% |         154      0.74%     89.96% |         164      0.79%     90.75% |         154      0.74%     91.49% |         156      0.75%     92.24% |         165      0.79%     93.03% |         341      1.64%     94.67% |         140      0.67%     95.35% |         539      2.59%     97.94% |         144      0.69%     98.63% |         147      0.71%     99.34% |         138      0.66%    100.00% # Number of accesses per bank
system.mem_ctrls.memBankCount::total            20795                       # Number of accesses per bank
system.ruby_clk_domain.clock                      500                       # Clock period in ticks
system.ruby.phys_mem.bytes_read::cpu.inst     23038860                       # Number of bytes read from this memory
system.ruby.phys_mem.bytes_read::cpu.data      4857864                       # Number of bytes read from this memory
system.ruby.phys_mem.bytes_read::gpu.ce         73052                       # Number of bytes read from this memory
system.ruby.phys_mem.bytes_read::gpu.shader_cores0.data        35072                       # Number of bytes read from this memory
system.ruby.phys_mem.bytes_read::gpu.shader_cores0.inst          312                       # Number of bytes read from this memory
system.ruby.phys_mem.bytes_read::gpu.shader_cores1.data        35456                       # Number of bytes read from this memory
system.ruby.phys_mem.bytes_read::gpu.shader_cores1.inst          312                       # Number of bytes read from this memory
system.ruby.phys_mem.bytes_read::gpu.shader_cores2.data        35072                       # Number of bytes read from this memory
system.ruby.phys_mem.bytes_read::gpu.shader_cores2.inst          312                       # Number of bytes read from this memory
system.ruby.phys_mem.bytes_read::gpu.shader_cores3.data        34816                       # Number of bytes read from this memory
system.ruby.phys_mem.bytes_read::gpu.shader_cores3.inst          312                       # Number of bytes read from this memory
system.ruby.phys_mem.bytes_read::total       28111440                       # Number of bytes read from this memory
system.ruby.phys_mem.bytes_inst_read::cpu.inst     23038860                       # Number of instructions bytes read from this memory
system.ruby.phys_mem.bytes_inst_read::gpu.shader_cores0.inst          312                       # Number of instructions bytes read from this memory
system.ruby.phys_mem.bytes_inst_read::gpu.shader_cores1.inst          312                       # Number of instructions bytes read from this memory
system.ruby.phys_mem.bytes_inst_read::gpu.shader_cores2.inst          312                       # Number of instructions bytes read from this memory
system.ruby.phys_mem.bytes_inst_read::gpu.shader_cores3.inst          312                       # Number of instructions bytes read from this memory
system.ruby.phys_mem.bytes_inst_read::total     23040108                       # Number of instructions bytes read from this memory
system.ruby.phys_mem.bytes_written::cpu.data      3503552                       # Number of bytes written to this memory
system.ruby.phys_mem.bytes_written::gpu.ce        73052                       # Number of bytes written to this memory
system.ruby.phys_mem.bytes_written::gpu.shader_cores0.data         8448                       # Number of bytes written to this memory
system.ruby.phys_mem.bytes_written::gpu.shader_cores1.data         8576                       # Number of bytes written to this memory
system.ruby.phys_mem.bytes_written::gpu.shader_cores2.data         8448                       # Number of bytes written to this memory
system.ruby.phys_mem.bytes_written::gpu.shader_cores3.data         8448                       # Number of bytes written to this memory
system.ruby.phys_mem.bytes_written::total      3610524                       # Number of bytes written to this memory
system.ruby.phys_mem.num_reads::cpu.inst      5759715                       # Number of read requests responded to by this memory
system.ruby.phys_mem.num_reads::cpu.data      1051300                       # Number of read requests responded to by this memory
system.ruby.phys_mem.num_reads::gpu.ce            577                       # Number of read requests responded to by this memory
system.ruby.phys_mem.num_reads::gpu.shader_cores0.data          428                       # Number of read requests responded to by this memory
system.ruby.phys_mem.num_reads::gpu.shader_cores0.inst           13                       # Number of read requests responded to by this memory
system.ruby.phys_mem.num_reads::gpu.shader_cores1.data          421                       # Number of read requests responded to by this memory
system.ruby.phys_mem.num_reads::gpu.shader_cores1.inst           13                       # Number of read requests responded to by this memory
system.ruby.phys_mem.num_reads::gpu.shader_cores2.data          428                       # Number of read requests responded to by this memory
system.ruby.phys_mem.num_reads::gpu.shader_cores2.inst           13                       # Number of read requests responded to by this memory
system.ruby.phys_mem.num_reads::gpu.shader_cores3.data          416                       # Number of read requests responded to by this memory
system.ruby.phys_mem.num_reads::gpu.shader_cores3.inst           13                       # Number of read requests responded to by this memory
system.ruby.phys_mem.num_reads::total         6813337                       # Number of read requests responded to by this memory
system.ruby.phys_mem.num_writes::cpu.data       907772                       # Number of write requests responded to by this memory
system.ruby.phys_mem.num_writes::gpu.ce           576                       # Number of write requests responded to by this memory
system.ruby.phys_mem.num_writes::gpu.shader_cores0.data          216                       # Number of write requests responded to by this memory
system.ruby.phys_mem.num_writes::gpu.shader_cores1.data          226                       # Number of write requests responded to by this memory
system.ruby.phys_mem.num_writes::gpu.shader_cores2.data          216                       # Number of write requests responded to by this memory
system.ruby.phys_mem.num_writes::gpu.shader_cores3.data          224                       # Number of write requests responded to by this memory
system.ruby.phys_mem.num_writes::total         909230                       # Number of write requests responded to by this memory
system.ruby.phys_mem.bw_read::cpu.inst     1402907341                       # Total read bandwidth from this memory (bytes/s)
system.ruby.phys_mem.bw_read::cpu.data      295810342                       # Total read bandwidth from this memory (bytes/s)
system.ruby.phys_mem.bw_read::gpu.ce          4448362                       # Total read bandwidth from this memory (bytes/s)
system.ruby.phys_mem.bw_read::gpu.shader_cores0.data      2135642                       # Total read bandwidth from this memory (bytes/s)
system.ruby.phys_mem.bw_read::gpu.shader_cores0.inst        18999                       # Total read bandwidth from this memory (bytes/s)
system.ruby.phys_mem.bw_read::gpu.shader_cores1.data      2159025                       # Total read bandwidth from this memory (bytes/s)
system.ruby.phys_mem.bw_read::gpu.shader_cores1.inst        18999                       # Total read bandwidth from this memory (bytes/s)
system.ruby.phys_mem.bw_read::gpu.shader_cores2.data      2135642                       # Total read bandwidth from this memory (bytes/s)
system.ruby.phys_mem.bw_read::gpu.shader_cores2.inst        18999                       # Total read bandwidth from this memory (bytes/s)
system.ruby.phys_mem.bw_read::gpu.shader_cores3.data      2120054                       # Total read bandwidth from this memory (bytes/s)
system.ruby.phys_mem.bw_read::gpu.shader_cores3.inst        18999                       # Total read bandwidth from this memory (bytes/s)
system.ruby.phys_mem.bw_read::total        1711792403                       # Total read bandwidth from this memory (bytes/s)
system.ruby.phys_mem.bw_inst_read::cpu.inst   1402907341                       # Instruction read bandwidth from this memory (bytes/s)
system.ruby.phys_mem.bw_inst_read::gpu.shader_cores0.inst        18999                       # Instruction read bandwidth from this memory (bytes/s)
system.ruby.phys_mem.bw_inst_read::gpu.shader_cores1.inst        18999                       # Instruction read bandwidth from this memory (bytes/s)
system.ruby.phys_mem.bw_inst_read::gpu.shader_cores2.inst        18999                       # Instruction read bandwidth from this memory (bytes/s)
system.ruby.phys_mem.bw_inst_read::gpu.shader_cores3.inst        18999                       # Instruction read bandwidth from this memory (bytes/s)
system.ruby.phys_mem.bw_inst_read::total   1402983335                       # Instruction read bandwidth from this memory (bytes/s)
system.ruby.phys_mem.bw_write::cpu.data     213342102                       # Write bandwidth from this memory (bytes/s)
system.ruby.phys_mem.bw_write::gpu.ce         4448362                       # Write bandwidth from this memory (bytes/s)
system.ruby.phys_mem.bw_write::gpu.shader_cores0.data       514425                       # Write bandwidth from this memory (bytes/s)
system.ruby.phys_mem.bw_write::gpu.shader_cores1.data       522219                       # Write bandwidth from this memory (bytes/s)
system.ruby.phys_mem.bw_write::gpu.shader_cores2.data       514425                       # Write bandwidth from this memory (bytes/s)
system.ruby.phys_mem.bw_write::gpu.shader_cores3.data       514425                       # Write bandwidth from this memory (bytes/s)
system.ruby.phys_mem.bw_write::total        219855957                       # Write bandwidth from this memory (bytes/s)
system.ruby.phys_mem.bw_total::cpu.inst    1402907341                       # Total bandwidth to/from this memory (bytes/s)
system.ruby.phys_mem.bw_total::cpu.data     509152444                       # Total bandwidth to/from this memory (bytes/s)
system.ruby.phys_mem.bw_total::gpu.ce         8896724                       # Total bandwidth to/from this memory (bytes/s)
system.ruby.phys_mem.bw_total::gpu.shader_cores0.data      2650067                       # Total bandwidth to/from this memory (bytes/s)
system.ruby.phys_mem.bw_total::gpu.shader_cores0.inst        18999                       # Total bandwidth to/from this memory (bytes/s)
system.ruby.phys_mem.bw_total::gpu.shader_cores1.data      2681244                       # Total bandwidth to/from this memory (bytes/s)
system.ruby.phys_mem.bw_total::gpu.shader_cores1.inst        18999                       # Total bandwidth to/from this memory (bytes/s)
system.ruby.phys_mem.bw_total::gpu.shader_cores2.data      2650067                       # Total bandwidth to/from this memory (bytes/s)
system.ruby.phys_mem.bw_total::gpu.shader_cores2.inst        18999                       # Total bandwidth to/from this memory (bytes/s)
system.ruby.phys_mem.bw_total::gpu.shader_cores3.data      2634479                       # Total bandwidth to/from this memory (bytes/s)
system.ruby.phys_mem.bw_total::gpu.shader_cores3.inst        18999                       # Total bandwidth to/from this memory (bytes/s)
system.ruby.phys_mem.bw_total::total       1931648361                       # Total bandwidth to/from this memory (bytes/s)
system.cpu_voltage_domain.voltage                   1                       # Voltage in Volts
system.cpu_clk_domain.clock                       500                       # Clock period in ticks
system.cpu.dstage2_mmu.stage2_tlb.walker.walks            0                       # Table walker walks requested
system.cpu.dstage2_mmu.stage2_tlb.walker.walkRequestOrigin_Requested::Data            0                       # Table walker requests started/completed, data/inst
system.cpu.dstage2_mmu.stage2_tlb.walker.walkRequestOrigin_Requested::Inst            0                       # Table walker requests started/completed, data/inst
system.cpu.dstage2_mmu.stage2_tlb.walker.walkRequestOrigin_Requested::total            0                       # Table walker requests started/completed, data/inst
system.cpu.dstage2_mmu.stage2_tlb.walker.walkRequestOrigin_Completed::Data            0                       # Table walker requests started/completed, data/inst
system.cpu.dstage2_mmu.stage2_tlb.walker.walkRequestOrigin_Completed::Inst            0                       # Table walker requests started/completed, data/inst
system.cpu.dstage2_mmu.stage2_tlb.walker.walkRequestOrigin_Completed::total            0                       # Table walker requests started/completed, data/inst
system.cpu.dstage2_mmu.stage2_tlb.walker.walkRequestOrigin::total            0                       # Table walker requests started/completed, data/inst
system.cpu.dstage2_mmu.stage2_tlb.inst_hits            0                       # ITB inst hits
system.cpu.dstage2_mmu.stage2_tlb.inst_misses            0                       # ITB inst misses
system.cpu.dstage2_mmu.stage2_tlb.read_hits            0                       # DTB read hits
system.cpu.dstage2_mmu.stage2_tlb.read_misses            0                       # DTB read misses
system.cpu.dstage2_mmu.stage2_tlb.write_hits            0                       # DTB write hits
system.cpu.dstage2_mmu.stage2_tlb.write_misses            0                       # DTB write misses
system.cpu.dstage2_mmu.stage2_tlb.flush_tlb            0                       # Number of times complete TLB was flushed
system.cpu.dstage2_mmu.stage2_tlb.flush_tlb_mva            0                       # Number of times TLB was flushed by MVA
system.cpu.dstage2_mmu.stage2_tlb.flush_tlb_mva_asid            0                       # Number of times TLB was flushed by MVA & ASID
system.cpu.dstage2_mmu.stage2_tlb.flush_tlb_asid            0                       # Number of times TLB was flushed by ASID
system.cpu.dstage2_mmu.stage2_tlb.flush_entries            0                       # Number of entries that have been flushed from TLB
system.cpu.dstage2_mmu.stage2_tlb.align_faults            0                       # Number of TLB faults due to alignment restrictions
system.cpu.dstage2_mmu.stage2_tlb.prefetch_faults            0                       # Number of TLB faults due to prefetch
system.cpu.dstage2_mmu.stage2_tlb.domain_faults            0                       # Number of TLB faults due to domain restrictions
system.cpu.dstage2_mmu.stage2_tlb.perms_faults            0                       # Number of TLB faults due to permissions restrictions
system.cpu.dstage2_mmu.stage2_tlb.read_accesses            0                       # DTB read accesses
system.cpu.dstage2_mmu.stage2_tlb.write_accesses            0                       # DTB write accesses
system.cpu.dstage2_mmu.stage2_tlb.inst_accesses            0                       # ITB inst accesses
system.cpu.dstage2_mmu.stage2_tlb.hits              0                       # DTB hits
system.cpu.dstage2_mmu.stage2_tlb.misses            0                       # DTB misses
system.cpu.dstage2_mmu.stage2_tlb.accesses            0                       # DTB accesses
system.cpu.dtb.walker.walks                         0                       # Table walker walks requested
system.cpu.dtb.walker.walkRequestOrigin_Requested::Data            0                       # Table walker requests started/completed, data/inst
system.cpu.dtb.walker.walkRequestOrigin_Requested::Inst            0                       # Table walker requests started/completed, data/inst
system.cpu.dtb.walker.walkRequestOrigin_Requested::total            0                       # Table walker requests started/completed, data/inst
system.cpu.dtb.walker.walkRequestOrigin_Completed::Data            0                       # Table walker requests started/completed, data/inst
system.cpu.dtb.walker.walkRequestOrigin_Completed::Inst            0                       # Table walker requests started/completed, data/inst
system.cpu.dtb.walker.walkRequestOrigin_Completed::total            0                       # Table walker requests started/completed, data/inst
system.cpu.dtb.walker.walkRequestOrigin::total            0                       # Table walker requests started/completed, data/inst
system.cpu.dtb.inst_hits                            0                       # ITB inst hits
system.cpu.dtb.inst_misses                          0                       # ITB inst misses
system.cpu.dtb.read_hits                            0                       # DTB read hits
system.cpu.dtb.read_misses                          0                       # DTB read misses
system.cpu.dtb.write_hits                           0                       # DTB write hits
system.cpu.dtb.write_misses                         0                       # DTB write misses
system.cpu.dtb.flush_tlb                            0                       # Number of times complete TLB was flushed
system.cpu.dtb.flush_tlb_mva                        0                       # Number of times TLB was flushed by MVA
system.cpu.dtb.flush_tlb_mva_asid                   0                       # Number of times TLB was flushed by MVA & ASID
system.cpu.dtb.flush_tlb_asid                       0                       # Number of times TLB was flushed by ASID
system.cpu.dtb.flush_entries                        0                       # Number of entries that have been flushed from TLB
system.cpu.dtb.align_faults                         0                       # Number of TLB faults due to alignment restrictions
system.cpu.dtb.prefetch_faults                      0                       # Number of TLB faults due to prefetch
system.cpu.dtb.domain_faults                        0                       # Number of TLB faults due to domain restrictions
system.cpu.dtb.perms_faults                         0                       # Number of TLB faults due to permissions restrictions
system.cpu.dtb.read_accesses                        0                       # DTB read accesses
system.cpu.dtb.write_accesses                       0                       # DTB write accesses
system.cpu.dtb.inst_accesses                        0                       # ITB inst accesses
system.cpu.dtb.hits                                 0                       # DTB hits
system.cpu.dtb.misses                               0                       # DTB misses
system.cpu.dtb.accesses                             0                       # DTB accesses
system.cpu.istage2_mmu.stage2_tlb.walker.walks            0                       # Table walker walks requested
system.cpu.istage2_mmu.stage2_tlb.walker.walkRequestOrigin_Requested::Data            0                       # Table walker requests started/completed, data/inst
system.cpu.istage2_mmu.stage2_tlb.walker.walkRequestOrigin_Requested::Inst            0                       # Table walker requests started/completed, data/inst
system.cpu.istage2_mmu.stage2_tlb.walker.walkRequestOrigin_Requested::total            0                       # Table walker requests started/completed, data/inst
system.cpu.istage2_mmu.stage2_tlb.walker.walkRequestOrigin_Completed::Data            0                       # Table walker requests started/completed, data/inst
system.cpu.istage2_mmu.stage2_tlb.walker.walkRequestOrigin_Completed::Inst            0                       # Table walker requests started/completed, data/inst
system.cpu.istage2_mmu.stage2_tlb.walker.walkRequestOrigin_Completed::total            0                       # Table walker requests started/completed, data/inst
system.cpu.istage2_mmu.stage2_tlb.walker.walkRequestOrigin::total            0                       # Table walker requests started/completed, data/inst
system.cpu.istage2_mmu.stage2_tlb.inst_hits            0                       # ITB inst hits
system.cpu.istage2_mmu.stage2_tlb.inst_misses            0                       # ITB inst misses
system.cpu.istage2_mmu.stage2_tlb.read_hits            0                       # DTB read hits
system.cpu.istage2_mmu.stage2_tlb.read_misses            0                       # DTB read misses
system.cpu.istage2_mmu.stage2_tlb.write_hits            0                       # DTB write hits
system.cpu.istage2_mmu.stage2_tlb.write_misses            0                       # DTB write misses
system.cpu.istage2_mmu.stage2_tlb.flush_tlb            0                       # Number of times complete TLB was flushed
system.cpu.istage2_mmu.stage2_tlb.flush_tlb_mva            0                       # Number of times TLB was flushed by MVA
system.cpu.istage2_mmu.stage2_tlb.flush_tlb_mva_asid            0                       # Number of times TLB was flushed by MVA & ASID
system.cpu.istage2_mmu.stage2_tlb.flush_tlb_asid            0                       # Number of times TLB was flushed by ASID
system.cpu.istage2_mmu.stage2_tlb.flush_entries            0                       # Number of entries that have been flushed from TLB
system.cpu.istage2_mmu.stage2_tlb.align_faults            0                       # Number of TLB faults due to alignment restrictions
system.cpu.istage2_mmu.stage2_tlb.prefetch_faults            0                       # Number of TLB faults due to prefetch
system.cpu.istage2_mmu.stage2_tlb.domain_faults            0                       # Number of TLB faults due to domain restrictions
system.cpu.istage2_mmu.stage2_tlb.perms_faults            0                       # Number of TLB faults due to permissions restrictions
system.cpu.istage2_mmu.stage2_tlb.read_accesses            0                       # DTB read accesses
system.cpu.istage2_mmu.stage2_tlb.write_accesses            0                       # DTB write accesses
system.cpu.istage2_mmu.stage2_tlb.inst_accesses            0                       # ITB inst accesses
system.cpu.istage2_mmu.stage2_tlb.hits              0                       # DTB hits
system.cpu.istage2_mmu.stage2_tlb.misses            0                       # DTB misses
system.cpu.istage2_mmu.stage2_tlb.accesses            0                       # DTB accesses
system.cpu.itb.walker.walks                         0                       # Table walker walks requested
system.cpu.itb.walker.walkRequestOrigin_Requested::Data            0                       # Table walker requests started/completed, data/inst
system.cpu.itb.walker.walkRequestOrigin_Requested::Inst            0                       # Table walker requests started/completed, data/inst
system.cpu.itb.walker.walkRequestOrigin_Requested::total            0                       # Table walker requests started/completed, data/inst
system.cpu.itb.walker.walkRequestOrigin_Completed::Data            0                       # Table walker requests started/completed, data/inst
system.cpu.itb.walker.walkRequestOrigin_Completed::Inst            0                       # Table walker requests started/completed, data/inst
system.cpu.itb.walker.walkRequestOrigin_Completed::total            0                       # Table walker requests started/completed, data/inst
system.cpu.itb.walker.walkRequestOrigin::total            0                       # Table walker requests started/completed, data/inst
system.cpu.itb.inst_hits                            0                       # ITB inst hits
system.cpu.itb.inst_misses                          0                       # ITB inst misses
system.cpu.itb.read_hits                            0                       # DTB read hits
system.cpu.itb.read_misses                          0                       # DTB read misses
system.cpu.itb.write_hits                           0                       # DTB write hits
system.cpu.itb.write_misses                         0                       # DTB write misses
system.cpu.itb.flush_tlb                            0                       # Number of times complete TLB was flushed
system.cpu.itb.flush_tlb_mva                        0                       # Number of times TLB was flushed by MVA
system.cpu.itb.flush_tlb_mva_asid                   0                       # Number of times TLB was flushed by MVA & ASID
system.cpu.itb.flush_tlb_asid                       0                       # Number of times TLB was flushed by ASID
system.cpu.itb.flush_entries                        0                       # Number of entries that have been flushed from TLB
system.cpu.itb.align_faults                         0                       # Number of TLB faults due to alignment restrictions
system.cpu.itb.prefetch_faults                      0                       # Number of TLB faults due to prefetch
system.cpu.itb.domain_faults                        0                       # Number of TLB faults due to domain restrictions
system.cpu.itb.perms_faults                         0                       # Number of TLB faults due to permissions restrictions
system.cpu.itb.read_accesses                        0                       # DTB read accesses
system.cpu.itb.write_accesses                       0                       # DTB write accesses
system.cpu.itb.inst_accesses                        0                       # ITB inst accesses
system.cpu.itb.hits                                 0                       # DTB hits
system.cpu.itb.misses                               0                       # DTB misses
system.cpu.itb.accesses                             0                       # DTB accesses
system.cpu.workload.num_syscalls                   46                       # Number of system calls
system.cpu.numCycles                         32844450                       # number of cpu cycles simulated
system.cpu.numWorkItemsStarted                      1                       # number of work items this cpu started
system.cpu.numWorkItemsCompleted                    1                       # number of work items this cpu completed
system.cpu.committedInsts                     5018259                       # Number of instructions committed
system.cpu.committedOps                       5848386                       # Number of ops (including micro ops) committed
system.cpu.num_int_alu_accesses               5001059                       # Number of integer alu accesses
system.cpu.num_fp_alu_accesses                  59924                       # Number of float alu accesses
system.cpu.num_func_calls                      195244                       # number of times a function call or return occured
system.cpu.num_conditional_control_insts       760805                       # number of instructions that are conditional controls
system.cpu.num_int_insts                      5001059                       # number of integer instructions
system.cpu.num_fp_insts                         59924                       # number of float instructions
system.cpu.num_int_register_reads             8778481                       # number of times the integer registers were read
system.cpu.num_int_register_writes            3379229                       # number of times the integer registers were written
system.cpu.num_fp_register_reads                67560                       # number of times the floating registers were read
system.cpu.num_fp_register_writes               47255                       # number of times the floating registers were written
system.cpu.num_cc_register_reads             20756411                       # number of times the CC registers were read
system.cpu.num_cc_register_writes             2988573                       # number of times the CC registers were written
system.cpu.num_mem_refs                       2038136                       # number of memory refs
system.cpu.num_load_insts                     1058359                       # Number of load instructions
system.cpu.num_store_insts                     979777                       # Number of store instructions
system.cpu.num_idle_cycles               41030.001998                       # Number of idle cycles
system.cpu.num_busy_cycles               32803419.998002                       # Number of busy cycles
system.cpu.not_idle_fraction                 0.998751                       # Percentage of non-idle cycles
system.cpu.idle_fraction                     0.001249                       # Percentage of idle cycles
system.cpu.Branches                           1037599                       # Number of branches fetched
system.cpu.op_class::No_OpClass                     0      0.00%      0.00% # Class of executed instruction
system.cpu.op_class::IntAlu                   3822442     64.46%     64.46% # Class of executed instruction
system.cpu.op_class::IntMult                    35530      0.60%     65.06% # Class of executed instruction
system.cpu.op_class::IntDiv                         0      0.00%     65.06% # Class of executed instruction
system.cpu.op_class::FloatAdd                       0      0.00%     65.06% # Class of executed instruction
system.cpu.op_class::FloatCmp                       0      0.00%     65.06% # Class of executed instruction
system.cpu.op_class::FloatCvt                       0      0.00%     65.06% # Class of executed instruction
system.cpu.op_class::FloatMult                      0      0.00%     65.06% # Class of executed instruction
system.cpu.op_class::FloatDiv                       0      0.00%     65.06% # Class of executed instruction
system.cpu.op_class::FloatSqrt                      0      0.00%     65.06% # Class of executed instruction
system.cpu.op_class::SimdAdd                        0      0.00%     65.06% # Class of executed instruction
system.cpu.op_class::SimdAddAcc                     0      0.00%     65.06% # Class of executed instruction
system.cpu.op_class::SimdAlu                        0      0.00%     65.06% # Class of executed instruction
system.cpu.op_class::SimdCmp                        0      0.00%     65.06% # Class of executed instruction
system.cpu.op_class::SimdCvt                        0      0.00%     65.06% # Class of executed instruction
system.cpu.op_class::SimdMisc                       0      0.00%     65.06% # Class of executed instruction
system.cpu.op_class::SimdMult                       0      0.00%     65.06% # Class of executed instruction
system.cpu.op_class::SimdMultAcc                    0      0.00%     65.06% # Class of executed instruction
system.cpu.op_class::SimdShift                      0      0.00%     65.06% # Class of executed instruction
system.cpu.op_class::SimdShiftAcc                   0      0.00%     65.06% # Class of executed instruction
system.cpu.op_class::SimdSqrt                       0      0.00%     65.06% # Class of executed instruction
system.cpu.op_class::SimdFloatAdd                 412      0.01%     65.06% # Class of executed instruction
system.cpu.op_class::SimdFloatAlu                   0      0.00%     65.06% # Class of executed instruction
system.cpu.op_class::SimdFloatCmp                  83      0.00%     65.06% # Class of executed instruction
system.cpu.op_class::SimdFloatCvt                6964      0.12%     65.18% # Class of executed instruction
system.cpu.op_class::SimdFloatDiv                  18      0.00%     65.18% # Class of executed instruction
system.cpu.op_class::SimdFloatMisc              21749      0.37%     65.55% # Class of executed instruction
system.cpu.op_class::SimdFloatMult               4747      0.08%     65.63% # Class of executed instruction
system.cpu.op_class::SimdFloatMultAcc             140      0.00%     65.63% # Class of executed instruction
system.cpu.op_class::SimdFloatSqrt                  0      0.00%     65.63% # Class of executed instruction
system.cpu.op_class::MemRead                  1058359     17.85%     83.48% # Class of executed instruction
system.cpu.op_class::MemWrite                  979777     16.52%    100.00% # Class of executed instruction
system.cpu.op_class::IprAccess                      0      0.00%    100.00% # Class of executed instruction
system.cpu.op_class::InstPrefetch                   0      0.00%    100.00% # Class of executed instruction
system.cpu.op_class::total                    5930221                       # Class of executed instruction
system.gpu.clk_domain.voltage_domain.voltage            1                       # Voltage in Volts
system.gpu.clk_domain.clock                      1429                       # Clock period in ticks
system.gpu.dram_wrapper.clk_domain.clock          541                       # Clock period in ticks
system.gpu.icnt_wrapper.clk_domain.clock         2858                       # Clock period in ticks
system.ruby.delayHist::bucket_size                 16                       # delay histogram for all message
system.ruby.delayHist::max_bucket                 159                       # delay histogram for all message
system.ruby.delayHist::samples                  22907                       # delay histogram for all message
system.ruby.delayHist::mean                  0.713974                       # delay histogram for all message
system.ruby.delayHist::stdev                 4.349604                       # delay histogram for all message
system.ruby.delayHist                    |       22444     97.98%     97.98% |         374      1.63%     99.61% |          65      0.28%     99.90% |          10      0.04%     99.94% |           7      0.03%     99.97% |           5      0.02%     99.99% |           2      0.01%    100.00% |           0      0.00%    100.00% |           0      0.00%    100.00% |           0      0.00%    100.00% # delay histogram for all message
system.ruby.delayHist::total                    22907                       # delay histogram for all message
system.ruby.outstanding_req_hist::bucket_size            8                      
system.ruby.outstanding_req_hist::max_bucket           79                      
system.ruby.outstanding_req_hist::samples      7722568                      
system.ruby.outstanding_req_hist::mean       1.010789                      
system.ruby.outstanding_req_hist::gmean      1.001312                      
system.ruby.outstanding_req_hist::stdev      0.723340                      
system.ruby.outstanding_req_hist         |     7720695     99.98%     99.98% |         219      0.00%     99.98% |         228      0.00%     99.98% |         326      0.00%     99.99% |         181      0.00%     99.99% |          36      0.00%     99.99% |          35      0.00%     99.99% |          52      0.00%     99.99% |         796      0.01%    100.00% |           0      0.00%    100.00%
system.ruby.outstanding_req_hist::total       7722568                      
system.ruby.latency_hist::bucket_size             256                      
system.ruby.latency_hist::max_bucket             2559                      
system.ruby.latency_hist::samples             7722567                      
system.ruby.latency_hist::mean               3.477377                      
system.ruby.latency_hist::gmean              3.019290                      
system.ruby.latency_hist::stdev             18.624779                      
system.ruby.latency_hist                 |     7721077     99.98%     99.98% |         201      0.00%     99.98% |         150      0.00%     99.99% |         182      0.00%     99.99% |         255      0.00%     99.99% |         346      0.00%    100.00% |         294      0.00%    100.00% |          56      0.00%    100.00% |           6      0.00%    100.00% |           0      0.00%    100.00%
system.ruby.latency_hist::total               7722567                      
system.ruby.hit_latency_hist::bucket_size            1                      
system.ruby.hit_latency_hist::max_bucket            9                      
system.ruby.hit_latency_hist::samples         7710798                      
system.ruby.hit_latency_hist::mean           2.999572                      
system.ruby.hit_latency_hist::gmean          2.999295                      
system.ruby.hit_latency_hist::stdev          0.029245                      
system.ruby.hit_latency_hist             |           0      0.00%      0.00% |        1649      0.02%      0.02% |           0      0.00%      0.02% |     7709149     99.98%    100.00% |           0      0.00%    100.00% |           0      0.00%    100.00% |           0      0.00%    100.00% |           0      0.00%    100.00% |           0      0.00%    100.00% |           0      0.00%    100.00%
system.ruby.hit_latency_hist::total           7710798                      
system.ruby.miss_latency_hist::bucket_size          256                      
system.ruby.miss_latency_hist::max_bucket         2559                      
system.ruby.miss_latency_hist::samples          11769                      
system.ruby.miss_latency_hist::mean        316.524768                      
system.ruby.miss_latency_hist::gmean       234.669736                      
system.ruby.miss_latency_hist::stdev       359.831923                      
system.ruby.miss_latency_hist            |       10279     87.34%     87.34% |         201      1.71%     89.05% |         150      1.27%     90.32% |         182      1.55%     91.87% |         255      2.17%     94.04% |         346      2.94%     96.98% |         294      2.50%     99.47% |          56      0.48%     99.95% |           6      0.05%    100.00% |           0      0.00%    100.00%
system.ruby.miss_latency_hist::total            11769                      
system.ruby.L1Cache.incomplete_times             1056                      
system.ruby.Directory.incomplete_times          10712                      
system.gpu.shader_mmu.pagewalkers00.walker.walks            0                       # Table walker walks requested
system.gpu.shader_mmu.pagewalkers00.walker.walkRequestOrigin_Requested::Data            0                       # Table walker requests started/completed, data/inst
system.gpu.shader_mmu.pagewalkers00.walker.walkRequestOrigin_Requested::Inst            0                       # Table walker requests started/completed, data/inst
system.gpu.shader_mmu.pagewalkers00.walker.walkRequestOrigin_Requested::total            0                       # Table walker requests started/completed, data/inst
system.gpu.shader_mmu.pagewalkers00.walker.walkRequestOrigin_Completed::Data            0                       # Table walker requests started/completed, data/inst
system.gpu.shader_mmu.pagewalkers00.walker.walkRequestOrigin_Completed::Inst            0                       # Table walker requests started/completed, data/inst
system.gpu.shader_mmu.pagewalkers00.walker.walkRequestOrigin_Completed::total            0                       # Table walker requests started/completed, data/inst
system.gpu.shader_mmu.pagewalkers00.walker.walkRequestOrigin::total            0                       # Table walker requests started/completed, data/inst
system.gpu.shader_mmu.pagewalkers00.inst_hits            0                       # ITB inst hits
system.gpu.shader_mmu.pagewalkers00.inst_misses            0                       # ITB inst misses
system.gpu.shader_mmu.pagewalkers00.read_hits            0                       # DTB read hits
system.gpu.shader_mmu.pagewalkers00.read_misses            0                       # DTB read misses
system.gpu.shader_mmu.pagewalkers00.write_hits            0                       # DTB write hits
system.gpu.shader_mmu.pagewalkers00.write_misses            0                       # DTB write misses
system.gpu.shader_mmu.pagewalkers00.flush_tlb            0                       # Number of times complete TLB was flushed
system.gpu.shader_mmu.pagewalkers00.flush_tlb_mva            0                       # Number of times TLB was flushed by MVA
system.gpu.shader_mmu.pagewalkers00.flush_tlb_mva_asid            0                       # Number of times TLB was flushed by MVA & ASID
system.gpu.shader_mmu.pagewalkers00.flush_tlb_asid            0                       # Number of times TLB was flushed by ASID
system.gpu.shader_mmu.pagewalkers00.flush_entries            0                       # Number of entries that have been flushed from TLB
system.gpu.shader_mmu.pagewalkers00.align_faults            0                       # Number of TLB faults due to alignment restrictions
system.gpu.shader_mmu.pagewalkers00.prefetch_faults            0                       # Number of TLB faults due to prefetch
system.gpu.shader_mmu.pagewalkers00.domain_faults            0                       # Number of TLB faults due to domain restrictions
system.gpu.shader_mmu.pagewalkers00.perms_faults            0                       # Number of TLB faults due to permissions restrictions
system.gpu.shader_mmu.pagewalkers00.read_accesses            0                       # DTB read accesses
system.gpu.shader_mmu.pagewalkers00.write_accesses            0                       # DTB write accesses
system.gpu.shader_mmu.pagewalkers00.inst_accesses            0                       # ITB inst accesses
system.gpu.shader_mmu.pagewalkers00.hits            0                       # DTB hits
system.gpu.shader_mmu.pagewalkers00.misses            0                       # DTB misses
system.gpu.shader_mmu.pagewalkers00.accesses            0                       # DTB accesses
system.gpu.shader_mmu.pagewalkers01.walker.walks            0                       # Table walker walks requested
system.gpu.shader_mmu.pagewalkers01.walker.walkRequestOrigin_Requested::Data            0                       # Table walker requests started/completed, data/inst
system.gpu.shader_mmu.pagewalkers01.walker.walkRequestOrigin_Requested::Inst            0                       # Table walker requests started/completed, data/inst
system.gpu.shader_mmu.pagewalkers01.walker.walkRequestOrigin_Requested::total            0                       # Table walker requests started/completed, data/inst
system.gpu.shader_mmu.pagewalkers01.walker.walkRequestOrigin_Completed::Data            0                       # Table walker requests started/completed, data/inst
system.gpu.shader_mmu.pagewalkers01.walker.walkRequestOrigin_Completed::Inst            0                       # Table walker requests started/completed, data/inst
system.gpu.shader_mmu.pagewalkers01.walker.walkRequestOrigin_Completed::total            0                       # Table walker requests started/completed, data/inst
system.gpu.shader_mmu.pagewalkers01.walker.walkRequestOrigin::total            0                       # Table walker requests started/completed, data/inst
system.gpu.shader_mmu.pagewalkers01.inst_hits            0                       # ITB inst hits
system.gpu.shader_mmu.pagewalkers01.inst_misses            0                       # ITB inst misses
system.gpu.shader_mmu.pagewalkers01.read_hits            0                       # DTB read hits
system.gpu.shader_mmu.pagewalkers01.read_misses            0                       # DTB read misses
system.gpu.shader_mmu.pagewalkers01.write_hits            0                       # DTB write hits
system.gpu.shader_mmu.pagewalkers01.write_misses            0                       # DTB write misses
system.gpu.shader_mmu.pagewalkers01.flush_tlb            0                       # Number of times complete TLB was flushed
system.gpu.shader_mmu.pagewalkers01.flush_tlb_mva            0                       # Number of times TLB was flushed by MVA
system.gpu.shader_mmu.pagewalkers01.flush_tlb_mva_asid            0                       # Number of times TLB was flushed by MVA & ASID
system.gpu.shader_mmu.pagewalkers01.flush_tlb_asid            0                       # Number of times TLB was flushed by ASID
system.gpu.shader_mmu.pagewalkers01.flush_entries            0                       # Number of entries that have been flushed from TLB
system.gpu.shader_mmu.pagewalkers01.align_faults            0                       # Number of TLB faults due to alignment restrictions
system.gpu.shader_mmu.pagewalkers01.prefetch_faults            0                       # Number of TLB faults due to prefetch
system.gpu.shader_mmu.pagewalkers01.domain_faults            0                       # Number of TLB faults due to domain restrictions
system.gpu.shader_mmu.pagewalkers01.perms_faults            0                       # Number of TLB faults due to permissions restrictions
system.gpu.shader_mmu.pagewalkers01.read_accesses            0                       # DTB read accesses
system.gpu.shader_mmu.pagewalkers01.write_accesses            0                       # DTB write accesses
system.gpu.shader_mmu.pagewalkers01.inst_accesses            0                       # ITB inst accesses
system.gpu.shader_mmu.pagewalkers01.hits            0                       # DTB hits
system.gpu.shader_mmu.pagewalkers01.misses            0                       # DTB misses
system.gpu.shader_mmu.pagewalkers01.accesses            0                       # DTB accesses
system.gpu.shader_mmu.pagewalkers02.walker.walks            0                       # Table walker walks requested
system.gpu.shader_mmu.pagewalkers02.walker.walkRequestOrigin_Requested::Data            0                       # Table walker requests started/completed, data/inst
system.gpu.shader_mmu.pagewalkers02.walker.walkRequestOrigin_Requested::Inst            0                       # Table walker requests started/completed, data/inst
system.gpu.shader_mmu.pagewalkers02.walker.walkRequestOrigin_Requested::total            0                       # Table walker requests started/completed, data/inst
system.gpu.shader_mmu.pagewalkers02.walker.walkRequestOrigin_Completed::Data            0                       # Table walker requests started/completed, data/inst
system.gpu.shader_mmu.pagewalkers02.walker.walkRequestOrigin_Completed::Inst            0                       # Table walker requests started/completed, data/inst
system.gpu.shader_mmu.pagewalkers02.walker.walkRequestOrigin_Completed::total            0                       # Table walker requests started/completed, data/inst
system.gpu.shader_mmu.pagewalkers02.walker.walkRequestOrigin::total            0                       # Table walker requests started/completed, data/inst
system.gpu.shader_mmu.pagewalkers02.inst_hits            0                       # ITB inst hits
system.gpu.shader_mmu.pagewalkers02.inst_misses            0                       # ITB inst misses
system.gpu.shader_mmu.pagewalkers02.read_hits            0                       # DTB read hits
system.gpu.shader_mmu.pagewalkers02.read_misses            0                       # DTB read misses
system.gpu.shader_mmu.pagewalkers02.write_hits            0                       # DTB write hits
system.gpu.shader_mmu.pagewalkers02.write_misses            0                       # DTB write misses
system.gpu.shader_mmu.pagewalkers02.flush_tlb            0                       # Number of times complete TLB was flushed
system.gpu.shader_mmu.pagewalkers02.flush_tlb_mva            0                       # Number of times TLB was flushed by MVA
system.gpu.shader_mmu.pagewalkers02.flush_tlb_mva_asid            0                       # Number of times TLB was flushed by MVA & ASID
system.gpu.shader_mmu.pagewalkers02.flush_tlb_asid            0                       # Number of times TLB was flushed by ASID
system.gpu.shader_mmu.pagewalkers02.flush_entries            0                       # Number of entries that have been flushed from TLB
system.gpu.shader_mmu.pagewalkers02.align_faults            0                       # Number of TLB faults due to alignment restrictions
system.gpu.shader_mmu.pagewalkers02.prefetch_faults            0                       # Number of TLB faults due to prefetch
system.gpu.shader_mmu.pagewalkers02.domain_faults            0                       # Number of TLB faults due to domain restrictions
system.gpu.shader_mmu.pagewalkers02.perms_faults            0                       # Number of TLB faults due to permissions restrictions
system.gpu.shader_mmu.pagewalkers02.read_accesses            0                       # DTB read accesses
system.gpu.shader_mmu.pagewalkers02.write_accesses            0                       # DTB write accesses
system.gpu.shader_mmu.pagewalkers02.inst_accesses            0                       # ITB inst accesses
system.gpu.shader_mmu.pagewalkers02.hits            0                       # DTB hits
system.gpu.shader_mmu.pagewalkers02.misses            0                       # DTB misses
system.gpu.shader_mmu.pagewalkers02.accesses            0                       # DTB accesses
system.gpu.shader_mmu.pagewalkers03.walker.walks            0                       # Table walker walks requested
system.gpu.shader_mmu.pagewalkers03.walker.walkRequestOrigin_Requested::Data            0                       # Table walker requests started/completed, data/inst
system.gpu.shader_mmu.pagewalkers03.walker.walkRequestOrigin_Requested::Inst            0                       # Table walker requests started/completed, data/inst
system.gpu.shader_mmu.pagewalkers03.walker.walkRequestOrigin_Requested::total            0                       # Table walker requests started/completed, data/inst
system.gpu.shader_mmu.pagewalkers03.walker.walkRequestOrigin_Completed::Data            0                       # Table walker requests started/completed, data/inst
system.gpu.shader_mmu.pagewalkers03.walker.walkRequestOrigin_Completed::Inst            0                       # Table walker requests started/completed, data/inst
system.gpu.shader_mmu.pagewalkers03.walker.walkRequestOrigin_Completed::total            0                       # Table walker requests started/completed, data/inst
system.gpu.shader_mmu.pagewalkers03.walker.walkRequestOrigin::total            0                       # Table walker requests started/completed, data/inst
system.gpu.shader_mmu.pagewalkers03.inst_hits            0                       # ITB inst hits
system.gpu.shader_mmu.pagewalkers03.inst_misses            0                       # ITB inst misses
system.gpu.shader_mmu.pagewalkers03.read_hits            0                       # DTB read hits
system.gpu.shader_mmu.pagewalkers03.read_misses            0                       # DTB read misses
system.gpu.shader_mmu.pagewalkers03.write_hits            0                       # DTB write hits
system.gpu.shader_mmu.pagewalkers03.write_misses            0                       # DTB write misses
system.gpu.shader_mmu.pagewalkers03.flush_tlb            0                       # Number of times complete TLB was flushed
system.gpu.shader_mmu.pagewalkers03.flush_tlb_mva            0                       # Number of times TLB was flushed by MVA
system.gpu.shader_mmu.pagewalkers03.flush_tlb_mva_asid            0                       # Number of times TLB was flushed by MVA & ASID
system.gpu.shader_mmu.pagewalkers03.flush_tlb_asid            0                       # Number of times TLB was flushed by ASID
system.gpu.shader_mmu.pagewalkers03.flush_entries            0                       # Number of entries that have been flushed from TLB
system.gpu.shader_mmu.pagewalkers03.align_faults            0                       # Number of TLB faults due to alignment restrictions
system.gpu.shader_mmu.pagewalkers03.prefetch_faults            0                       # Number of TLB faults due to prefetch
system.gpu.shader_mmu.pagewalkers03.domain_faults            0                       # Number of TLB faults due to domain restrictions
system.gpu.shader_mmu.pagewalkers03.perms_faults            0                       # Number of TLB faults due to permissions restrictions
system.gpu.shader_mmu.pagewalkers03.read_accesses            0                       # DTB read accesses
system.gpu.shader_mmu.pagewalkers03.write_accesses            0                       # DTB write accesses
system.gpu.shader_mmu.pagewalkers03.inst_accesses            0                       # ITB inst accesses
system.gpu.shader_mmu.pagewalkers03.hits            0                       # DTB hits
system.gpu.shader_mmu.pagewalkers03.misses            0                       # DTB misses
system.gpu.shader_mmu.pagewalkers03.accesses            0                       # DTB accesses
system.gpu.shader_mmu.pagewalkers04.walker.walks            0                       # Table walker walks requested
system.gpu.shader_mmu.pagewalkers04.walker.walkRequestOrigin_Requested::Data            0                       # Table walker requests started/completed, data/inst
system.gpu.shader_mmu.pagewalkers04.walker.walkRequestOrigin_Requested::Inst            0                       # Table walker requests started/completed, data/inst
system.gpu.shader_mmu.pagewalkers04.walker.walkRequestOrigin_Requested::total            0                       # Table walker requests started/completed, data/inst
system.gpu.shader_mmu.pagewalkers04.walker.walkRequestOrigin_Completed::Data            0                       # Table walker requests started/completed, data/inst
system.gpu.shader_mmu.pagewalkers04.walker.walkRequestOrigin_Completed::Inst            0                       # Table walker requests started/completed, data/inst
system.gpu.shader_mmu.pagewalkers04.walker.walkRequestOrigin_Completed::total            0                       # Table walker requests started/completed, data/inst
system.gpu.shader_mmu.pagewalkers04.walker.walkRequestOrigin::total            0                       # Table walker requests started/completed, data/inst
system.gpu.shader_mmu.pagewalkers04.inst_hits            0                       # ITB inst hits
system.gpu.shader_mmu.pagewalkers04.inst_misses            0                       # ITB inst misses
system.gpu.shader_mmu.pagewalkers04.read_hits            0                       # DTB read hits
system.gpu.shader_mmu.pagewalkers04.read_misses            0                       # DTB read misses
system.gpu.shader_mmu.pagewalkers04.write_hits            0                       # DTB write hits
system.gpu.shader_mmu.pagewalkers04.write_misses            0                       # DTB write misses
system.gpu.shader_mmu.pagewalkers04.flush_tlb            0                       # Number of times complete TLB was flushed
system.gpu.shader_mmu.pagewalkers04.flush_tlb_mva            0                       # Number of times TLB was flushed by MVA
system.gpu.shader_mmu.pagewalkers04.flush_tlb_mva_asid            0                       # Number of times TLB was flushed by MVA & ASID
system.gpu.shader_mmu.pagewalkers04.flush_tlb_asid            0                       # Number of times TLB was flushed by ASID
system.gpu.shader_mmu.pagewalkers04.flush_entries            0                       # Number of entries that have been flushed from TLB
system.gpu.shader_mmu.pagewalkers04.align_faults            0                       # Number of TLB faults due to alignment restrictions
system.gpu.shader_mmu.pagewalkers04.prefetch_faults            0                       # Number of TLB faults due to prefetch
system.gpu.shader_mmu.pagewalkers04.domain_faults            0                       # Number of TLB faults due to domain restrictions
system.gpu.shader_mmu.pagewalkers04.perms_faults            0                       # Number of TLB faults due to permissions restrictions
system.gpu.shader_mmu.pagewalkers04.read_accesses            0                       # DTB read accesses
system.gpu.shader_mmu.pagewalkers04.write_accesses            0                       # DTB write accesses
system.gpu.shader_mmu.pagewalkers04.inst_accesses            0                       # ITB inst accesses
system.gpu.shader_mmu.pagewalkers04.hits            0                       # DTB hits
system.gpu.shader_mmu.pagewalkers04.misses            0                       # DTB misses
system.gpu.shader_mmu.pagewalkers04.accesses            0                       # DTB accesses
system.gpu.shader_mmu.pagewalkers05.walker.walks            0                       # Table walker walks requested
system.gpu.shader_mmu.pagewalkers05.walker.walkRequestOrigin_Requested::Data            0                       # Table walker requests started/completed, data/inst
system.gpu.shader_mmu.pagewalkers05.walker.walkRequestOrigin_Requested::Inst            0                       # Table walker requests started/completed, data/inst
system.gpu.shader_mmu.pagewalkers05.walker.walkRequestOrigin_Requested::total            0                       # Table walker requests started/completed, data/inst
system.gpu.shader_mmu.pagewalkers05.walker.walkRequestOrigin_Completed::Data            0                       # Table walker requests started/completed, data/inst
system.gpu.shader_mmu.pagewalkers05.walker.walkRequestOrigin_Completed::Inst            0                       # Table walker requests started/completed, data/inst
system.gpu.shader_mmu.pagewalkers05.walker.walkRequestOrigin_Completed::total            0                       # Table walker requests started/completed, data/inst
system.gpu.shader_mmu.pagewalkers05.walker.walkRequestOrigin::total            0                       # Table walker requests started/completed, data/inst
system.gpu.shader_mmu.pagewalkers05.inst_hits            0                       # ITB inst hits
system.gpu.shader_mmu.pagewalkers05.inst_misses            0                       # ITB inst misses
system.gpu.shader_mmu.pagewalkers05.read_hits            0                       # DTB read hits
system.gpu.shader_mmu.pagewalkers05.read_misses            0                       # DTB read misses
system.gpu.shader_mmu.pagewalkers05.write_hits            0                       # DTB write hits
system.gpu.shader_mmu.pagewalkers05.write_misses            0                       # DTB write misses
system.gpu.shader_mmu.pagewalkers05.flush_tlb            0                       # Number of times complete TLB was flushed
system.gpu.shader_mmu.pagewalkers05.flush_tlb_mva            0                       # Number of times TLB was flushed by MVA
system.gpu.shader_mmu.pagewalkers05.flush_tlb_mva_asid            0                       # Number of times TLB was flushed by MVA & ASID
system.gpu.shader_mmu.pagewalkers05.flush_tlb_asid            0                       # Number of times TLB was flushed by ASID
system.gpu.shader_mmu.pagewalkers05.flush_entries            0                       # Number of entries that have been flushed from TLB
system.gpu.shader_mmu.pagewalkers05.align_faults            0                       # Number of TLB faults due to alignment restrictions
system.gpu.shader_mmu.pagewalkers05.prefetch_faults            0                       # Number of TLB faults due to prefetch
system.gpu.shader_mmu.pagewalkers05.domain_faults            0                       # Number of TLB faults due to domain restrictions
system.gpu.shader_mmu.pagewalkers05.perms_faults            0                       # Number of TLB faults due to permissions restrictions
system.gpu.shader_mmu.pagewalkers05.read_accesses            0                       # DTB read accesses
system.gpu.shader_mmu.pagewalkers05.write_accesses            0                       # DTB write accesses
system.gpu.shader_mmu.pagewalkers05.inst_accesses            0                       # ITB inst accesses
system.gpu.shader_mmu.pagewalkers05.hits            0                       # DTB hits
system.gpu.shader_mmu.pagewalkers05.misses            0                       # DTB misses
system.gpu.shader_mmu.pagewalkers05.accesses            0                       # DTB accesses
system.gpu.shader_mmu.pagewalkers06.walker.walks            0                       # Table walker walks requested
system.gpu.shader_mmu.pagewalkers06.walker.walkRequestOrigin_Requested::Data            0                       # Table walker requests started/completed, data/inst
system.gpu.shader_mmu.pagewalkers06.walker.walkRequestOrigin_Requested::Inst            0                       # Table walker requests started/completed, data/inst
system.gpu.shader_mmu.pagewalkers06.walker.walkRequestOrigin_Requested::total            0                       # Table walker requests started/completed, data/inst
system.gpu.shader_mmu.pagewalkers06.walker.walkRequestOrigin_Completed::Data            0                       # Table walker requests started/completed, data/inst
system.gpu.shader_mmu.pagewalkers06.walker.walkRequestOrigin_Completed::Inst            0                       # Table walker requests started/completed, data/inst
system.gpu.shader_mmu.pagewalkers06.walker.walkRequestOrigin_Completed::total            0                       # Table walker requests started/completed, data/inst
system.gpu.shader_mmu.pagewalkers06.walker.walkRequestOrigin::total            0                       # Table walker requests started/completed, data/inst
system.gpu.shader_mmu.pagewalkers06.inst_hits            0                       # ITB inst hits
system.gpu.shader_mmu.pagewalkers06.inst_misses            0                       # ITB inst misses
system.gpu.shader_mmu.pagewalkers06.read_hits            0                       # DTB read hits
system.gpu.shader_mmu.pagewalkers06.read_misses            0                       # DTB read misses
system.gpu.shader_mmu.pagewalkers06.write_hits            0                       # DTB write hits
system.gpu.shader_mmu.pagewalkers06.write_misses            0                       # DTB write misses
system.gpu.shader_mmu.pagewalkers06.flush_tlb            0                       # Number of times complete TLB was flushed
system.gpu.shader_mmu.pagewalkers06.flush_tlb_mva            0                       # Number of times TLB was flushed by MVA
system.gpu.shader_mmu.pagewalkers06.flush_tlb_mva_asid            0                       # Number of times TLB was flushed by MVA & ASID
system.gpu.shader_mmu.pagewalkers06.flush_tlb_asid            0                       # Number of times TLB was flushed by ASID
system.gpu.shader_mmu.pagewalkers06.flush_entries            0                       # Number of entries that have been flushed from TLB
system.gpu.shader_mmu.pagewalkers06.align_faults            0                       # Number of TLB faults due to alignment restrictions
system.gpu.shader_mmu.pagewalkers06.prefetch_faults            0                       # Number of TLB faults due to prefetch
system.gpu.shader_mmu.pagewalkers06.domain_faults            0                       # Number of TLB faults due to domain restrictions
system.gpu.shader_mmu.pagewalkers06.perms_faults            0                       # Number of TLB faults due to permissions restrictions
system.gpu.shader_mmu.pagewalkers06.read_accesses            0                       # DTB read accesses
system.gpu.shader_mmu.pagewalkers06.write_accesses            0                       # DTB write accesses
system.gpu.shader_mmu.pagewalkers06.inst_accesses            0                       # ITB inst accesses
system.gpu.shader_mmu.pagewalkers06.hits            0                       # DTB hits
system.gpu.shader_mmu.pagewalkers06.misses            0                       # DTB misses
system.gpu.shader_mmu.pagewalkers06.accesses            0                       # DTB accesses
system.gpu.shader_mmu.pagewalkers07.walker.walks            0                       # Table walker walks requested
system.gpu.shader_mmu.pagewalkers07.walker.walkRequestOrigin_Requested::Data            0                       # Table walker requests started/completed, data/inst
system.gpu.shader_mmu.pagewalkers07.walker.walkRequestOrigin_Requested::Inst            0                       # Table walker requests started/completed, data/inst
system.gpu.shader_mmu.pagewalkers07.walker.walkRequestOrigin_Requested::total            0                       # Table walker requests started/completed, data/inst
system.gpu.shader_mmu.pagewalkers07.walker.walkRequestOrigin_Completed::Data            0                       # Table walker requests started/completed, data/inst
system.gpu.shader_mmu.pagewalkers07.walker.walkRequestOrigin_Completed::Inst            0                       # Table walker requests started/completed, data/inst
system.gpu.shader_mmu.pagewalkers07.walker.walkRequestOrigin_Completed::total            0                       # Table walker requests started/completed, data/inst
system.gpu.shader_mmu.pagewalkers07.walker.walkRequestOrigin::total            0                       # Table walker requests started/completed, data/inst
system.gpu.shader_mmu.pagewalkers07.inst_hits            0                       # ITB inst hits
system.gpu.shader_mmu.pagewalkers07.inst_misses            0                       # ITB inst misses
system.gpu.shader_mmu.pagewalkers07.read_hits            0                       # DTB read hits
system.gpu.shader_mmu.pagewalkers07.read_misses            0                       # DTB read misses
system.gpu.shader_mmu.pagewalkers07.write_hits            0                       # DTB write hits
system.gpu.shader_mmu.pagewalkers07.write_misses            0                       # DTB write misses
system.gpu.shader_mmu.pagewalkers07.flush_tlb            0                       # Number of times complete TLB was flushed
system.gpu.shader_mmu.pagewalkers07.flush_tlb_mva            0                       # Number of times TLB was flushed by MVA
system.gpu.shader_mmu.pagewalkers07.flush_tlb_mva_asid            0                       # Number of times TLB was flushed by MVA & ASID
system.gpu.shader_mmu.pagewalkers07.flush_tlb_asid            0                       # Number of times TLB was flushed by ASID
system.gpu.shader_mmu.pagewalkers07.flush_entries            0                       # Number of entries that have been flushed from TLB
system.gpu.shader_mmu.pagewalkers07.align_faults            0                       # Number of TLB faults due to alignment restrictions
system.gpu.shader_mmu.pagewalkers07.prefetch_faults            0                       # Number of TLB faults due to prefetch
system.gpu.shader_mmu.pagewalkers07.domain_faults            0                       # Number of TLB faults due to domain restrictions
system.gpu.shader_mmu.pagewalkers07.perms_faults            0                       # Number of TLB faults due to permissions restrictions
system.gpu.shader_mmu.pagewalkers07.read_accesses            0                       # DTB read accesses
system.gpu.shader_mmu.pagewalkers07.write_accesses            0                       # DTB write accesses
system.gpu.shader_mmu.pagewalkers07.inst_accesses            0                       # ITB inst accesses
system.gpu.shader_mmu.pagewalkers07.hits            0                       # DTB hits
system.gpu.shader_mmu.pagewalkers07.misses            0                       # DTB misses
system.gpu.shader_mmu.pagewalkers07.accesses            0                       # DTB accesses
system.gpu.shader_mmu.pagewalkers08.walker.walks            0                       # Table walker walks requested
system.gpu.shader_mmu.pagewalkers08.walker.walkRequestOrigin_Requested::Data            0                       # Table walker requests started/completed, data/inst
system.gpu.shader_mmu.pagewalkers08.walker.walkRequestOrigin_Requested::Inst            0                       # Table walker requests started/completed, data/inst
system.gpu.shader_mmu.pagewalkers08.walker.walkRequestOrigin_Requested::total            0                       # Table walker requests started/completed, data/inst
system.gpu.shader_mmu.pagewalkers08.walker.walkRequestOrigin_Completed::Data            0                       # Table walker requests started/completed, data/inst
system.gpu.shader_mmu.pagewalkers08.walker.walkRequestOrigin_Completed::Inst            0                       # Table walker requests started/completed, data/inst
system.gpu.shader_mmu.pagewalkers08.walker.walkRequestOrigin_Completed::total            0                       # Table walker requests started/completed, data/inst
system.gpu.shader_mmu.pagewalkers08.walker.walkRequestOrigin::total            0                       # Table walker requests started/completed, data/inst
system.gpu.shader_mmu.pagewalkers08.inst_hits            0                       # ITB inst hits
system.gpu.shader_mmu.pagewalkers08.inst_misses            0                       # ITB inst misses
system.gpu.shader_mmu.pagewalkers08.read_hits            0                       # DTB read hits
system.gpu.shader_mmu.pagewalkers08.read_misses            0                       # DTB read misses
system.gpu.shader_mmu.pagewalkers08.write_hits            0                       # DTB write hits
system.gpu.shader_mmu.pagewalkers08.write_misses            0                       # DTB write misses
system.gpu.shader_mmu.pagewalkers08.flush_tlb            0                       # Number of times complete TLB was flushed
system.gpu.shader_mmu.pagewalkers08.flush_tlb_mva            0                       # Number of times TLB was flushed by MVA
system.gpu.shader_mmu.pagewalkers08.flush_tlb_mva_asid            0                       # Number of times TLB was flushed by MVA & ASID
system.gpu.shader_mmu.pagewalkers08.flush_tlb_asid            0                       # Number of times TLB was flushed by ASID
system.gpu.shader_mmu.pagewalkers08.flush_entries            0                       # Number of entries that have been flushed from TLB
system.gpu.shader_mmu.pagewalkers08.align_faults            0                       # Number of TLB faults due to alignment restrictions
system.gpu.shader_mmu.pagewalkers08.prefetch_faults            0                       # Number of TLB faults due to prefetch
system.gpu.shader_mmu.pagewalkers08.domain_faults            0                       # Number of TLB faults due to domain restrictions
system.gpu.shader_mmu.pagewalkers08.perms_faults            0                       # Number of TLB faults due to permissions restrictions
system.gpu.shader_mmu.pagewalkers08.read_accesses            0                       # DTB read accesses
system.gpu.shader_mmu.pagewalkers08.write_accesses            0                       # DTB write accesses
system.gpu.shader_mmu.pagewalkers08.inst_accesses            0                       # ITB inst accesses
system.gpu.shader_mmu.pagewalkers08.hits            0                       # DTB hits
system.gpu.shader_mmu.pagewalkers08.misses            0                       # DTB misses
system.gpu.shader_mmu.pagewalkers08.accesses            0                       # DTB accesses
system.gpu.shader_mmu.pagewalkers09.walker.walks            0                       # Table walker walks requested
system.gpu.shader_mmu.pagewalkers09.walker.walkRequestOrigin_Requested::Data            0                       # Table walker requests started/completed, data/inst
system.gpu.shader_mmu.pagewalkers09.walker.walkRequestOrigin_Requested::Inst            0                       # Table walker requests started/completed, data/inst
system.gpu.shader_mmu.pagewalkers09.walker.walkRequestOrigin_Requested::total            0                       # Table walker requests started/completed, data/inst
system.gpu.shader_mmu.pagewalkers09.walker.walkRequestOrigin_Completed::Data            0                       # Table walker requests started/completed, data/inst
system.gpu.shader_mmu.pagewalkers09.walker.walkRequestOrigin_Completed::Inst            0                       # Table walker requests started/completed, data/inst
system.gpu.shader_mmu.pagewalkers09.walker.walkRequestOrigin_Completed::total            0                       # Table walker requests started/completed, data/inst
system.gpu.shader_mmu.pagewalkers09.walker.walkRequestOrigin::total            0                       # Table walker requests started/completed, data/inst
system.gpu.shader_mmu.pagewalkers09.inst_hits            0                       # ITB inst hits
system.gpu.shader_mmu.pagewalkers09.inst_misses            0                       # ITB inst misses
system.gpu.shader_mmu.pagewalkers09.read_hits            0                       # DTB read hits
system.gpu.shader_mmu.pagewalkers09.read_misses            0                       # DTB read misses
system.gpu.shader_mmu.pagewalkers09.write_hits            0                       # DTB write hits
system.gpu.shader_mmu.pagewalkers09.write_misses            0                       # DTB write misses
system.gpu.shader_mmu.pagewalkers09.flush_tlb            0                       # Number of times complete TLB was flushed
system.gpu.shader_mmu.pagewalkers09.flush_tlb_mva            0                       # Number of times TLB was flushed by MVA
system.gpu.shader_mmu.pagewalkers09.flush_tlb_mva_asid            0                       # Number of times TLB was flushed by MVA & ASID
system.gpu.shader_mmu.pagewalkers09.flush_tlb_asid            0                       # Number of times TLB was flushed by ASID
system.gpu.shader_mmu.pagewalkers09.flush_entries            0                       # Number of entries that have been flushed from TLB
system.gpu.shader_mmu.pagewalkers09.align_faults            0                       # Number of TLB faults due to alignment restrictions
system.gpu.shader_mmu.pagewalkers09.prefetch_faults            0                       # Number of TLB faults due to prefetch
system.gpu.shader_mmu.pagewalkers09.domain_faults            0                       # Number of TLB faults due to domain restrictions
system.gpu.shader_mmu.pagewalkers09.perms_faults            0                       # Number of TLB faults due to permissions restrictions
system.gpu.shader_mmu.pagewalkers09.read_accesses            0                       # DTB read accesses
system.gpu.shader_mmu.pagewalkers09.write_accesses            0                       # DTB write accesses
system.gpu.shader_mmu.pagewalkers09.inst_accesses            0                       # ITB inst accesses
system.gpu.shader_mmu.pagewalkers09.hits            0                       # DTB hits
system.gpu.shader_mmu.pagewalkers09.misses            0                       # DTB misses
system.gpu.shader_mmu.pagewalkers09.accesses            0                       # DTB accesses
[...]
system.ruby.Directory.miss_mach_latency_hist::total        10713                      
system.ruby.Directory.miss_latency_hist.issue_to_initial_request::bucket_size            1                      
system.ruby.Directory.miss_latency_hist.issue_to_initial_request::max_bucket            9                      
system.ruby.Directory.miss_latency_hist.issue_to_initial_request::samples            1                      
system.ruby.Directory.miss_latency_hist.issue_to_initial_request::stdev          nan                      
system.ruby.Directory.miss_latency_hist.issue_to_initial_request |           1    100.00%    100.00% |           0      0.00%    100.00% |           0      0.00%    100.00% |           0      0.00%    100.00% |           0      0.00%    100.00% |           0      0.00%    100.00% |           0      0.00%    100.00% |           0      0.00%    100.00% |           0      0.00%    100.00% |           0      0.00%    100.00%
system.ruby.Directory.miss_latency_hist.issue_to_initial_request::total            1                      
system.ruby.Directory.miss_latency_hist.initial_to_forward::bucket_size            1                      
system.ruby.Directory.miss_latency_hist.initial_to_forward::max_bucket            9                      
system.ruby.Directory.miss_latency_hist.initial_to_forward::samples            1                      
system.ruby.Directory.miss_latency_hist.initial_to_forward::stdev          nan                      
system.ruby.Directory.miss_latency_hist.initial_to_forward |           1    100.00%    100.00% |           0      0.00%    100.00% |           0      0.00%    100.00% |           0      0.00%    100.00% |           0      0.00%    100.00% |           0      0.00%    100.00% |           0      0.00%    100.00% |           0      0.00%    100.00% |           0      0.00%    100.00% |           0      0.00%    100.00%
system.ruby.Directory.miss_latency_hist.initial_to_forward::total            1                      
system.ruby.Directory.miss_latency_hist.forward_to_first_response::bucket_size            1                      
system.ruby.Directory.miss_latency_hist.forward_to_first_response::max_bucket            9                      
system.ruby.Directory.miss_latency_hist.forward_to_first_response::samples            1                      
system.ruby.Directory.miss_latency_hist.forward_to_first_response::stdev          nan                      
system.ruby.Directory.miss_latency_hist.forward_to_first_response |           1    100.00%    100.00% |           0      0.00%    100.00% |           0      0.00%    100.00% |           0      0.00%    100.00% |           0      0.00%    100.00% |           0      0.00%    100.00% |           0      0.00%    100.00% |           0      0.00%    100.00% |           0      0.00%    100.00% |           0      0.00%    100.00%
system.ruby.Directory.miss_latency_hist.forward_to_first_response::total            1                      
system.ruby.Directory.miss_latency_hist.first_response_to_completion::bucket_size           16                      
system.ruby.Directory.miss_latency_hist.first_response_to_completion::max_bucket          159                      
system.ruby.Directory.miss_latency_hist.first_response_to_completion::samples            1                      
system.ruby.Directory.miss_latency_hist.first_response_to_completion::mean          158                      
system.ruby.Directory.miss_latency_hist.first_response_to_completion::gmean   158.000000                      
system.ruby.Directory.miss_latency_hist.first_response_to_completion::stdev          nan                      
system.ruby.Directory.miss_latency_hist.first_response_to_completion |           0      0.00%      0.00% |           0      0.00%      0.00% |           0      0.00%      0.00% |           0      0.00%      0.00% |           0      0.00%      0.00% |           0      0.00%      0.00% |           0      0.00%      0.00% |           0      0.00%      0.00% |           0      0.00%      0.00% |           1    100.00%    100.00%
system.ruby.Directory.miss_latency_hist.first_response_to_completion::total            1                      
system.ruby.LD.L1Cache.miss_type_mach_latency_hist::bucket_size          256                      
system.ruby.LD.L1Cache.miss_type_mach_latency_hist::max_bucket         2559                      
system.ruby.LD.L1Cache.miss_type_mach_latency_hist::samples          781                      
system.ruby.LD.L1Cache.miss_type_mach_latency_hist::mean   429.115237                      
system.ruby.LD.L1Cache.miss_type_mach_latency_hist::gmean   172.406112                      
system.ruby.LD.L1Cache.miss_type_mach_latency_hist::stdev   544.094114                      
system.ruby.LD.L1Cache.miss_type_mach_latency_hist |         517     66.20%     66.20% |          33      4.23%     70.42% |          23      2.94%     73.37% |          32      4.10%     77.46% |          43      5.51%     82.97% |         119     15.24%     98.21% |          12      1.54%     99.74% |           2      0.26%    100.00% |           0      0.00%    100.00% |           0      0.00%    100.00%
system.ruby.LD.L1Cache.miss_type_mach_latency_hist::total          781                      
system.ruby.LD.Directory.miss_type_mach_latency_hist::bucket_size          256                      
system.ruby.LD.Directory.miss_type_mach_latency_hist::max_bucket         2559                      
system.ruby.LD.Directory.miss_type_mach_latency_hist::samples         3775                      
system.ruby.LD.Directory.miss_type_mach_latency_hist::mean   335.841854                      
system.ruby.LD.Directory.miss_type_mach_latency_hist::gmean   260.444778                      
system.ruby.LD.Directory.miss_type_mach_latency_hist::stdev   346.519433                      
system.ruby.LD.Directory.miss_type_mach_latency_hist |        3140     83.18%     83.18% |         124      3.28%     86.46% |         105      2.78%     89.25% |         104      2.75%     92.00% |         134      3.55%     95.55% |          82      2.17%     97.72% |          65      1.72%     99.44% |          15      0.40%     99.84% |           6      0.16%    100.00% |           0      0.00%    100.00%
system.ruby.LD.Directory.miss_type_mach_latency_hist::total         3775                      
system.ruby.ST.L1Cache.miss_type_mach_latency_hist::bucket_size          256                      
system.ruby.ST.L1Cache.miss_type_mach_latency_hist::max_bucket         2559                      
system.ruby.ST.L1Cache.miss_type_mach_latency_hist::samples          236                      
system.ruby.ST.L1Cache.miss_type_mach_latency_hist::mean   714.415254                      
system.ruby.ST.L1Cache.miss_type_mach_latency_hist::gmean   362.523664                      
system.ruby.ST.L1Cache.miss_type_mach_latency_hist::stdev   523.583159                      
system.ruby.ST.L1Cache.miss_type_mach_latency_hist |          84     35.59%     35.59% |           0      0.00%     35.59% |          15      6.36%     41.95% |          39     16.53%     58.47% |          73     30.93%     89.41% |          18      7.63%     97.03% |           7      2.97%    100.00% |           0      0.00%    100.00% |           0      0.00%    100.00% |           0      0.00%    100.00%
system.ruby.ST.L1Cache.miss_type_mach_latency_hist::total          236                      
system.ruby.ST.Directory.miss_type_mach_latency_hist::bucket_size          256                      
system.ruby.ST.Directory.miss_type_mach_latency_hist::max_bucket         2559                      
system.ruby.ST.Directory.miss_type_mach_latency_hist::samples         1452                      
system.ruby.ST.Directory.miss_type_mach_latency_hist::mean   561.873967                      
system.ruby.ST.Directory.miss_type_mach_latency_hist::gmean   333.491550                      
system.ruby.ST.Directory.miss_type_mach_latency_hist::stdev   622.249467                      
system.ruby.ST.Directory.miss_type_mach_latency_hist |        1059     72.93%     72.93% |           6      0.41%     73.35% |           4      0.28%     73.62% |           6      0.41%     74.04% |           4      0.28%     74.31% |         126      8.68%     82.99% |         209     14.39%     97.38% |          38      2.62%    100.00% |           0      0.00%    100.00% |           0      0.00%    100.00%
system.ruby.ST.Directory.miss_type_mach_latency_hist::total         1452                      
system.ruby.IFETCH.L1Cache.miss_type_mach_latency_hist::bucket_size          128                      
system.ruby.IFETCH.L1Cache.miss_type_mach_latency_hist::max_bucket         1279                      
system.ruby.IFETCH.L1Cache.miss_type_mach_latency_hist::samples           39                      
system.ruby.IFETCH.L1Cache.miss_type_mach_latency_hist::mean   198.820513                      
system.ruby.IFETCH.L1Cache.miss_type_mach_latency_hist::gmean   129.857157                      
system.ruby.IFETCH.L1Cache.miss_type_mach_latency_hist::stdev   228.600994                      
system.ruby.IFETCH.L1Cache.miss_type_mach_latency_hist |          16     41.03%     41.03% |          18     46.15%     87.18% |           1      2.56%     89.74% |           0      0.00%     89.74% |           1      2.56%     92.31% |           1      2.56%     94.87% |           0      0.00%     94.87% |           1      2.56%     97.44% |           1      2.56%    100.00% |           0      0.00%    100.00%
system.ruby.IFETCH.L1Cache.miss_type_mach_latency_hist::total           39                      
system.ruby.IFETCH.Directory.miss_type_mach_latency_hist::bucket_size          256                      
system.ruby.IFETCH.Directory.miss_type_mach_latency_hist::max_bucket         2559                      
system.ruby.IFETCH.Directory.miss_type_mach_latency_hist::samples         5482                      
system.ruby.IFETCH.Directory.miss_type_mach_latency_hist::mean   205.996169                      
system.ruby.IFETCH.Directory.miss_type_mach_latency_hist::gmean   204.976699                      
system.ruby.IFETCH.Directory.miss_type_mach_latency_hist::stdev    37.611640                      
system.ruby.IFETCH.Directory.miss_type_mach_latency_hist |        5441     99.25%     99.25% |          37      0.67%     99.93% |           1      0.02%     99.95% |           0      0.00%     99.95% |           0      0.00%     99.95% |           1      0.02%     99.96% |           1      0.02%     99.98% |           1      0.02%    100.00% |           0      0.00%    100.00% |           0      0.00%    100.00%
system.ruby.IFETCH.Directory.miss_type_mach_latency_hist::total         5482                      
system.ruby.Load_Linked.Directory.miss_type_mach_latency_hist::bucket_size           32                      
system.ruby.Load_Linked.Directory.miss_type_mach_latency_hist::max_bucket          319                      
system.ruby.Load_Linked.Directory.miss_type_mach_latency_hist::samples            4                      
system.ruby.Load_Linked.Directory.miss_type_mach_latency_hist::mean   192.500000                      
system.ruby.Load_Linked.Directory.miss_type_mach_latency_hist::gmean   190.923221                      
system.ruby.Load_Linked.Directory.miss_type_mach_latency_hist::stdev    27.012343                      
system.ruby.Load_Linked.Directory.miss_type_mach_latency_hist |           0      0.00%      0.00% |           0      0.00%      0.00% |           0      0.00%      0.00% |           0      0.00%      0.00% |           1     25.00%     25.00% |           0      0.00%     25.00% |           3     75.00%    100.00% |           0      0.00%    100.00% |           0      0.00%    100.00% |           0      0.00%    100.00%
system.ruby.Load_Linked.Directory.miss_type_mach_latency_hist::total            4                      
system.ruby.Directory_Controller.GETX           14856      0.00%      0.00%
system.ruby.Directory_Controller.PUTX           10082      0.00%      0.00%
system.ruby.Directory_Controller.Memory_Data        10713      0.00%      0.00%
system.ruby.Directory_Controller.Memory_Ack        10082      0.00%      0.00%
system.ruby.Directory_Controller.I.GETX         10713      0.00%      0.00%
system.ruby.Directory_Controller.M.GETX          1056      0.00%      0.00%
system.ruby.Directory_Controller.M.PUTX         10082      0.00%      0.00%
system.ruby.Directory_Controller.IM.GETX         3087      0.00%      0.00%
system.ruby.Directory_Controller.IM.Memory_Data        10713      0.00%      0.00%
system.ruby.Directory_Controller.MI.Memory_Ack        10082      0.00%      0.00%
system.ruby.L1Cache_Controller.Load      |     1034604     99.78%     99.78% |         428      0.04%     99.82% |         421      0.04%     99.86% |         428      0.04%     99.90% |         416      0.04%     99.94% |           0      0.00%     99.94% |         577      0.06%    100.00%
system.ruby.L1Cache_Controller.Load::total      1036874                      
system.ruby.L1Cache_Controller.Ifetch    |     5759715    100.00%    100.00% |          13      0.00%    100.00% |          13      0.00%    100.00% |          13      0.00%    100.00% |          13      0.00%    100.00% |           0      0.00%    100.00% |           0      0.00%    100.00%
system.ruby.L1Cache_Controller.Ifetch::total      5759767                      
system.ruby.L1Cache_Controller.Store     |      924468     99.84%     99.84% |         216      0.02%     99.87% |         226      0.02%     99.89% |         216      0.02%     99.91% |         224      0.02%     99.94% |           0      0.00%     99.94% |         576      0.06%    100.00%
system.ruby.L1Cache_Controller.Store::total       925926                      
system.ruby.L1Cache_Controller.Data      |        9638     81.89%     81.89% |         251      2.13%     84.03% |         234      1.99%     86.01% |         245      2.08%     88.10% |         248      2.11%     90.20% |           0      0.00%     90.20% |        1153      9.80%    100.00%
system.ruby.L1Cache_Controller.Data::total        11769                      
system.ruby.L1Cache_Controller.Fwd_GETX  |         182     17.23%     17.23% |         212     20.08%     37.31% |         198     18.75%     56.06% |         210     19.89%     75.95% |         210     19.89%     95.83% |           0      0.00%     95.83% |          44      4.17%    100.00%
system.ruby.L1Cache_Controller.Fwd_GETX::total         1056                      
system.ruby.L1Cache_Controller.Replacement |        9080     88.87%     88.87% |           0      0.00%     88.87% |           0      0.00%     88.87% |           0      0.00%     88.87% |           0      0.00%     88.87% |           0      0.00%     88.87% |        1137     11.13%    100.00%
system.ruby.L1Cache_Controller.Replacement::total        10217                      
system.ruby.L1Cache_Controller.Writeback_Ack |        8988     89.15%     89.15% |           0      0.00%     89.15% |           0      0.00%     89.15% |           0      0.00%     89.15% |           0      0.00%     89.15% |           0      0.00%     89.15% |        1094     10.85%    100.00%
system.ruby.L1Cache_Controller.Writeback_Ack::total        10082                      
system.ruby.L1Cache_Controller.I.Load    |        3130     68.70%     68.70% |         216      4.74%     73.44% |         206      4.52%     77.96% |         213      4.68%     82.64% |         214      4.70%     87.34% |           0      0.00%     87.34% |         577     12.66%    100.00%
system.ruby.L1Cache_Controller.I.Load::total         4556                      
system.ruby.L1Cache_Controller.I.Ifetch  |        5469     99.06%     99.06% |          13      0.24%     99.29% |          13      0.24%     99.53% |          13      0.24%     99.76% |          13      0.24%    100.00% |           0      0.00%    100.00% |           0      0.00%    100.00%
system.ruby.L1Cache_Controller.I.Ifetch::total         5521                      
system.ruby.L1Cache_Controller.I.Store   |        1039     61.41%     61.41% |          22      1.30%     62.71% |          15      0.89%     63.59% |          19      1.12%     64.72% |          21      1.24%     65.96% |           0      0.00%     65.96% |         576     34.04%    100.00%
system.ruby.L1Cache_Controller.I.Store::total         1692                      
system.ruby.L1Cache_Controller.I.Replacement |          92     68.15%     68.15% |           0      0.00%     68.15% |           0      0.00%     68.15% |           0      0.00%     68.15% |           0      0.00%     68.15% |           0      0.00%     68.15% |          43     31.85%    100.00%
system.ruby.L1Cache_Controller.I.Replacement::total          135                      
system.ruby.L1Cache_Controller.M.Load    |     1031474     99.92%     99.92% |         212      0.02%     99.94% |         215      0.02%     99.96% |         215      0.02%     99.98% |         202      0.02%    100.00% |           0      0.00%    100.00% |           0      0.00%    100.00%
system.ruby.L1Cache_Controller.M.Load::total      1032318                      
system.ruby.L1Cache_Controller.M.Ifetch  |     5754246    100.00%    100.00% |           0      0.00%    100.00% |           0      0.00%    100.00% |           0      0.00%    100.00% |           0      0.00%    100.00% |           0      0.00%    100.00% |           0      0.00%    100.00%
system.ruby.L1Cache_Controller.M.Ifetch::total      5754246                      
system.ruby.L1Cache_Controller.M.Store   |      923429     99.91%     99.91% |         194      0.02%     99.93% |         211      0.02%     99.96% |         197      0.02%     99.98% |         203      0.02%    100.00% |           0      0.00%    100.00% |           0      0.00%    100.00%
system.ruby.L1Cache_Controller.M.Store::total       924234                      
system.ruby.L1Cache_Controller.M.Fwd_GETX |         182     17.23%     17.23% |         212     20.08%     37.31% |         198     18.75%     56.06% |         210     19.89%     75.95% |         210     19.89%     95.83% |           0      0.00%     95.83% |          44      4.17%    100.00%
system.ruby.L1Cache_Controller.M.Fwd_GETX::total         1056                      
system.ruby.L1Cache_Controller.M.Replacement |        8988     89.15%     89.15% |           0      0.00%     89.15% |           0      0.00%     89.15% |           0      0.00%     89.15% |           0      0.00%     89.15% |           0      0.00%     89.15% |        1094     10.85%    100.00%
system.ruby.L1Cache_Controller.M.Replacement::total        10082                      
system.ruby.L1Cache_Controller.MI.Writeback_Ack |        8988     89.15%     89.15% |           0      0.00%     89.15% |           0      0.00%     89.15% |           0      0.00%     89.15% |           0      0.00%     89.15% |           0      0.00%     89.15% |        1094     10.85%    100.00%
system.ruby.L1Cache_Controller.MI.Writeback_Ack::total        10082                      
system.ruby.L1Cache_Controller.IS.Data   |        8599     85.33%     85.33% |         229      2.27%     87.61% |         219      2.17%     89.78% |         226      2.24%     92.02% |         227      2.25%     94.27% |           0      0.00%     94.27% |         577      5.73%    100.00%
system.ruby.L1Cache_Controller.IS.Data::total        10077                      
system.ruby.L1Cache_Controller.IM.Data   |        1039     61.41%     61.41% |          22      1.30%     62.71% |          15      0.89%     63.59% |          19      1.12%     64.72% |          21      1.24%     65.96% |           0      0.00%     65.96% |         576     34.04%    100.00%
system.ruby.L1Cache_Controller.IM.Data::total         1692                      

---------- End Simulation Statistics   ----------
