
---------- Begin Simulation Statistics ----------
sim_seconds                                  0.017681                       # Number of seconds simulated
sim_ticks                                 17680798500                       # Number of ticks simulated
final_tick                                17680798500                       # Number of ticks from beginning of simulation (restored from checkpoints and never reset)
sim_freq                                 1000000000000                       # Frequency of simulated ticks
host_inst_rate                                 124395                       # Simulator instruction rate (inst/s)
host_op_rate                                   237648                       # Simulator op (including micro ops) rate (op/s)
host_tick_rate                              443397854                       # Simulator tick rate (ticks/s)
host_mem_usage                                2398276                       # Number of bytes of host memory used
host_seconds                                    39.88                       # Real time elapsed on the host
sim_insts                                     4960342                       # Number of instructions simulated
sim_ops                                       9476372                       # Number of ops (including micro ops) simulated
system.voltage_domain.voltage                       1                       # Voltage in Volts
system.clk_domain.clock                          1000                       # Clock period in ticks
system.mem_ctrls.bytes_read::gpu.shader_cores0.data        34944                       # Number of bytes read from this memory
system.mem_ctrls.bytes_read::gpu.shader_cores0.inst          288                       # Number of bytes read from this memory
system.mem_ctrls.bytes_read::gpu.shader_cores1.data        35584                       # Number of bytes read from this memory
system.mem_ctrls.bytes_read::gpu.shader_cores1.inst          312                       # Number of bytes read from this memory
system.mem_ctrls.bytes_read::gpu.shader_cores2.data        34944                       # Number of bytes read from this memory
system.mem_ctrls.bytes_read::gpu.shader_cores2.inst          288                       # Number of bytes read from this memory
system.mem_ctrls.bytes_read::gpu.shader_cores3.data        34944                       # Number of bytes read from this memory
system.mem_ctrls.bytes_read::gpu.shader_cores3.inst          288                       # Number of bytes read from this memory
system.mem_ctrls.bytes_read::gpu.ce             73052                       # Number of bytes read from this memory
system.mem_ctrls.bytes_read::cpu.inst        53320888                       # Number of bytes read from this memory
system.mem_ctrls.bytes_read::cpu.data         7972111                       # Number of bytes read from this memory
system.mem_ctrls.bytes_read::total           61507643                       # Number of bytes read from this memory
system.mem_ctrls.bytes_inst_read::gpu.shader_cores0.inst          288                       # Number of instructions bytes read from this memory
system.mem_ctrls.bytes_inst_read::gpu.shader_cores1.inst          312                       # Number of instructions bytes read from this memory
system.mem_ctrls.bytes_inst_read::gpu.shader_cores2.inst          288                       # Number of instructions bytes read from this memory
system.mem_ctrls.bytes_inst_read::gpu.shader_cores3.inst          288                       # Number of instructions bytes read from this memory
system.mem_ctrls.bytes_inst_read::cpu.inst     53320888                       # Number of instructions bytes read from this memory
system.mem_ctrls.bytes_inst_read::total      53322064                       # Number of instructions bytes read from this memory
system.mem_ctrls.bytes_written::gpu.shader_cores0.data        12544                       # Number of bytes written to this memory
system.mem_ctrls.bytes_written::gpu.shader_cores1.data        12672                       # Number of bytes written to this memory
system.mem_ctrls.bytes_written::gpu.shader_cores2.data        12544                       # Number of bytes written to this memory
system.mem_ctrls.bytes_written::gpu.shader_cores3.data        12544                       # Number of bytes written to this memory
system.mem_ctrls.bytes_written::gpu.ce          73052                       # Number of bytes written to this memory
system.mem_ctrls.bytes_written::cpu.data      4969927                       # Number of bytes written to this memory
system.mem_ctrls.bytes_written::total         5093283                       # Number of bytes written to this memory
system.mem_ctrls.num_reads::gpu.shader_cores0.data          422                       # Number of read requests responded to by this memory
system.mem_ctrls.num_reads::gpu.shader_cores0.inst           12                       # Number of read requests responded to by this memory
system.mem_ctrls.num_reads::gpu.shader_cores1.data          427                       # Number of read requests responded to by this memory
system.mem_ctrls.num_reads::gpu.shader_cores1.inst           13                       # Number of read requests responded to by this memory
system.mem_ctrls.num_reads::gpu.shader_cores2.data          422                       # Number of read requests responded to by this memory
system.mem_ctrls.num_reads::gpu.shader_cores2.inst           12                       # Number of read requests responded to by this memory
system.mem_ctrls.num_reads::gpu.shader_cores3.data          422                       # Number of read requests responded to by this memory
system.mem_ctrls.num_reads::gpu.shader_cores3.inst           12                       # Number of read requests responded to by this memory
system.mem_ctrls.num_reads::gpu.ce                577                       # Number of read requests responded to by this memory
system.mem_ctrls.num_reads::cpu.inst          6665111                       # Number of read requests responded to by this memory
system.mem_ctrls.num_reads::cpu.data          1297860                       # Number of read requests responded to by this memory
system.mem_ctrls.num_reads::total             7965290                       # Number of read requests responded to by this memory
system.mem_ctrls.num_writes::gpu.shader_cores0.data          314                       # Number of write requests responded to by this memory
system.mem_ctrls.num_writes::gpu.shader_cores1.data          316                       # Number of write requests responded to by this memory
system.mem_ctrls.num_writes::gpu.shader_cores2.data          314                       # Number of write requests responded to by this memory
system.mem_ctrls.num_writes::gpu.shader_cores3.data          314                       # Number of write requests responded to by this memory
system.mem_ctrls.num_writes::gpu.ce               576                       # Number of write requests responded to by this memory
system.mem_ctrls.num_writes::cpu.data          788149                       # Number of write requests responded to by this memory
system.mem_ctrls.num_writes::total             789983                       # Number of write requests responded to by this memory
system.mem_ctrls.bw_read::gpu.shader_cores0.data      1976381                       # Total read bandwidth from this memory (bytes/s)
system.mem_ctrls.bw_read::gpu.shader_cores0.inst        16289                       # Total read bandwidth from this memory (bytes/s)
system.mem_ctrls.bw_read::gpu.shader_cores1.data      2012579                       # Total read bandwidth from this memory (bytes/s)
system.mem_ctrls.bw_read::gpu.shader_cores1.inst        17646                       # Total read bandwidth from this memory (bytes/s)
system.mem_ctrls.bw_read::gpu.shader_cores2.data      1976381                       # Total read bandwidth from this memory (bytes/s)
system.mem_ctrls.bw_read::gpu.shader_cores2.inst        16289                       # Total read bandwidth from this memory (bytes/s)
system.mem_ctrls.bw_read::gpu.shader_cores3.data      1976381                       # Total read bandwidth from this memory (bytes/s)
system.mem_ctrls.bw_read::gpu.shader_cores3.inst        16289                       # Total read bandwidth from this memory (bytes/s)
system.mem_ctrls.bw_read::gpu.ce              4131714                       # Total read bandwidth from this memory (bytes/s)
system.mem_ctrls.bw_read::cpu.inst         3015751127                       # Total read bandwidth from this memory (bytes/s)
system.mem_ctrls.bw_read::cpu.data          450890892                       # Total read bandwidth from this memory (bytes/s)
system.mem_ctrls.bw_read::total            3478781968                       # Total read bandwidth from this memory (bytes/s)
system.mem_ctrls.bw_inst_read::gpu.shader_cores0.inst        16289                       # Instruction read bandwidth from this memory (bytes/s)
system.mem_ctrls.bw_inst_read::gpu.shader_cores1.inst        17646                       # Instruction read bandwidth from this memory (bytes/s)
system.mem_ctrls.bw_inst_read::gpu.shader_cores2.inst        16289                       # Instruction read bandwidth from this memory (bytes/s)
system.mem_ctrls.bw_inst_read::gpu.shader_cores3.inst        16289                       # Instruction read bandwidth from this memory (bytes/s)
system.mem_ctrls.bw_inst_read::cpu.inst    3015751127                       # Instruction read bandwidth from this memory (bytes/s)
system.mem_ctrls.bw_inst_read::total       3015817640                       # Instruction read bandwidth from this memory (bytes/s)
system.mem_ctrls.bw_write::gpu.shader_cores0.data       709470                       # Write bandwidth from this memory (bytes/s)
system.mem_ctrls.bw_write::gpu.shader_cores1.data       716710                       # Write bandwidth from this memory (bytes/s)
system.mem_ctrls.bw_write::gpu.shader_cores2.data       709470                       # Write bandwidth from this memory (bytes/s)
system.mem_ctrls.bw_write::gpu.shader_cores3.data       709470                       # Write bandwidth from this memory (bytes/s)
system.mem_ctrls.bw_write::gpu.ce             4131714                       # Write bandwidth from this memory (bytes/s)
system.mem_ctrls.bw_write::cpu.data         281091773                       # Write bandwidth from this memory (bytes/s)
system.mem_ctrls.bw_write::total            288068607                       # Write bandwidth from this memory (bytes/s)
system.mem_ctrls.bw_total::gpu.shader_cores0.data      2685852                       # Total bandwidth to/from this memory (bytes/s)
system.mem_ctrls.bw_total::gpu.shader_cores0.inst        16289                       # Total bandwidth to/from this memory (bytes/s)
system.mem_ctrls.bw_total::gpu.shader_cores1.data      2729288                       # Total bandwidth to/from this memory (bytes/s)
system.mem_ctrls.bw_total::gpu.shader_cores1.inst        17646                       # Total bandwidth to/from this memory (bytes/s)
system.mem_ctrls.bw_total::gpu.shader_cores2.data      2685852                       # Total bandwidth to/from this memory (bytes/s)
system.mem_ctrls.bw_total::gpu.shader_cores2.inst        16289                       # Total bandwidth to/from this memory (bytes/s)
system.mem_ctrls.bw_total::gpu.shader_cores3.data      2685852                       # Total bandwidth to/from this memory (bytes/s)
system.mem_ctrls.bw_total::gpu.shader_cores3.inst        16289                       # Total bandwidth to/from this memory (bytes/s)
system.mem_ctrls.bw_total::gpu.ce             8263428                       # Total bandwidth to/from this memory (bytes/s)
system.mem_ctrls.bw_total::cpu.inst        3015751127                       # Total bandwidth to/from this memory (bytes/s)
system.mem_ctrls.bw_total::cpu.data         731982665                       # Total bandwidth to/from this memory (bytes/s)
system.mem_ctrls.bw_total::total           3766850575                       # Total bandwidth to/from this memory (bytes/s)
system.ruby_clk_domain.clock                      500                       # Clock period in ticks
system.ruby.delayHist::bucket_size                256                       # delay histogram for all message
system.ruby.delayHist::max_bucket                2559                       # delay histogram for all message
system.ruby.delayHist::samples                  26749                       # delay histogram for all message
system.ruby.delayHist::mean                 22.538001                       # delay histogram for all message
system.ruby.delayHist::stdev               158.037135                       # delay histogram for all message
system.ruby.delayHist                    |       26374     98.60%     98.60% |          67      0.25%     98.85% |          60      0.22%     99.07% |          55      0.21%     99.28% |          24      0.09%     99.37% |          25      0.09%     99.46% |          21      0.08%     99.54% |         122      0.46%    100.00% |           1      0.00%    100.00% |           0      0.00%    100.00% # delay histogram for all message
system.ruby.delayHist::total                    26749                       # delay histogram for all message
system.ruby.outstanding_req_hist::bucket_size            8                      
system.ruby.outstanding_req_hist::max_bucket           79                      
system.ruby.outstanding_req_hist::samples      8755274                      
system.ruby.outstanding_req_hist::mean       1.008499                      
system.ruby.outstanding_req_hist::gmean      1.000832                      
system.ruby.outstanding_req_hist::stdev      0.652708                      
system.ruby.outstanding_req_hist         |     8753434     99.98%     99.98% |         315      0.00%     99.98% |         185      0.00%     99.98% |         388      0.00%     99.99% |          50      0.00%     99.99% |          59      0.00%     99.99% |          79      0.00%     99.99% |          76      0.00%     99.99% |         688      0.01%    100.00% |           0      0.00%    100.00%
system.ruby.outstanding_req_hist::total       8755274                      
system.ruby.latency_hist::bucket_size             256                      
system.ruby.latency_hist::max_bucket             2559                      
system.ruby.latency_hist::samples             8755273                      
system.ruby.latency_hist::mean               3.157958                      
system.ruby.latency_hist::gmean              3.007506                      
system.ruby.latency_hist::stdev             11.526375                      
system.ruby.latency_hist                 |     8754104     99.99%     99.99% |         259      0.00%     99.99% |         362      0.00%     99.99% |         263      0.00%    100.00% |          69      0.00%    100.00% |          70      0.00%    100.00% |          74      0.00%    100.00% |          59      0.00%    100.00% |          13      0.00%    100.00% |           0      0.00%    100.00%
system.ruby.latency_hist::total               8755273                      
system.ruby.hit_latency_hist::bucket_size            1                      
system.ruby.hit_latency_hist::max_bucket            9                      
system.ruby.hit_latency_hist::samples         8746478                      
system.ruby.hit_latency_hist::mean           2.999457                      
system.ruby.hit_latency_hist::gmean          2.999106                      
system.ruby.hit_latency_hist::stdev          0.032938                      
system.ruby.hit_latency_hist             |           0      0.00%      0.00% |        2373      0.03%      0.03% |           0      0.00%      0.03% |     8744105     99.97%    100.00% |           0      0.00%    100.00% |           0      0.00%    100.00% |           0      0.00%    100.00% |           0      0.00%    100.00% |           0      0.00%    100.00% |           0      0.00%    100.00%
system.ruby.hit_latency_hist::total           8746478                      
system.ruby.miss_latency_hist::bucket_size          256                      
system.ruby.miss_latency_hist::max_bucket         2559                      
system.ruby.miss_latency_hist::samples           8795                      
system.ruby.miss_latency_hist::mean        160.784309                      
system.ruby.miss_latency_hist::gmean        48.547920                      
system.ruby.miss_latency_hist::stdev       327.715211                      
system.ruby.miss_latency_hist            |        7626     86.71%     86.71% |         259      2.94%     89.65% |         362      4.12%     93.77% |         263      2.99%     96.76% |          69      0.78%     97.54% |          70      0.80%     98.34% |          74      0.84%     99.18% |          59      0.67%     99.85% |          13      0.15%    100.00% |           0      0.00%    100.00%
system.ruby.miss_latency_hist::total             8795                      
system.ruby.l1_cntrl_ce.L1Dcache.demand_hits            0                       # Number of cache demand hits
system.ruby.l1_cntrl_ce.L1Dcache.demand_misses         1153                       # Number of cache demand misses
system.ruby.l1_cntrl_ce.L1Dcache.demand_accesses         1153                       # Number of cache demand accesses
system.ruby.l1_cntrl_ce.L1Icache.demand_hits            0                       # Number of cache demand hits
system.ruby.l1_cntrl_ce.L1Icache.demand_misses            0                       # Number of cache demand misses
system.ruby.l1_cntrl_ce.L1Icache.demand_accesses            0                       # Number of cache demand accesses
system.ruby.l1_cntrl_ce.prefetcher.miss_observed            0                       # number of misses observed
system.ruby.l1_cntrl_ce.prefetcher.allocated_streams            0                       # number of streams allocated for prefetching
system.ruby.l1_cntrl_ce.prefetcher.prefetches_requested            0                       # number of prefetch requests made
system.ruby.l1_cntrl_ce.prefetcher.prefetches_accepted            0                       # number of prefetch requests accepted
system.ruby.l1_cntrl_ce.prefetcher.dropped_prefetches            0                       # number of prefetch requests dropped
system.ruby.l1_cntrl_ce.prefetcher.hits             0                       # number of prefetched blocks accessed
system.ruby.l1_cntrl_ce.prefetcher.partial_hits            0                       # number of misses observed for a block being prefetched
system.ruby.l1_cntrl_ce.prefetcher.pages_crossed            0                       # number of prefetches across pages
system.ruby.l1_cntrl_ce.prefetcher.misses_on_prefetched_blocks            0                       # number of misses for blocks that were prefetched, yet missed
system.ruby.l1_cntrl_ce.fully_busy_cycles            3                       # cycles for which number of transistions == max transitions
system.ruby.l1_cntrl0.L1Dcache.demand_hits      2084524                       # Number of cache demand hits
system.ruby.l1_cntrl0.L1Dcache.demand_misses         1485                       # Number of cache demand misses
system.ruby.l1_cntrl0.L1Dcache.demand_accesses      2086009                       # Number of cache demand accesses
system.ruby.l1_cntrl0.L1Icache.demand_hits      6659581                       # Number of cache demand hits
system.ruby.l1_cntrl0.L1Icache.demand_misses         5530                       # Number of cache demand misses
system.ruby.l1_cntrl0.L1Icache.demand_accesses      6665111                       # Number of cache demand accesses
system.ruby.l1_cntrl0.prefetcher.miss_observed            0                       # number of misses observed
system.ruby.l1_cntrl0.prefetcher.allocated_streams            0                       # number of streams allocated for prefetching
system.ruby.l1_cntrl0.prefetcher.prefetches_requested            0                       # number of prefetch requests made
system.ruby.l1_cntrl0.prefetcher.prefetches_accepted            0                       # number of prefetch requests accepted
system.ruby.l1_cntrl0.prefetcher.dropped_prefetches            0                       # number of prefetch requests dropped
system.ruby.l1_cntrl0.prefetcher.hits               0                       # number of prefetched blocks accessed
system.ruby.l1_cntrl0.prefetcher.partial_hits            0                       # number of misses observed for a block being prefetched
system.ruby.l1_cntrl0.prefetcher.pages_crossed            0                       # number of prefetches across pages
system.ruby.l1_cntrl0.prefetcher.misses_on_prefetched_blocks            0                       # number of misses for blocks that were prefetched, yet missed
system.ruby.network.routers0.percent_links_utilized     0.103038                      
system.ruby.network.routers0.msg_count.Control::0         7015                      
system.ruby.network.routers0.msg_count.Request_Control::0          309                      
system.ruby.network.routers0.msg_count.Response_Data::1         7400                      
system.ruby.network.routers0.msg_count.Response_Control::1          955                      
system.ruby.network.routers0.msg_count.Response_Control::2         1482                      
system.ruby.network.routers0.msg_count.Writeback_Data::0          585                      
system.ruby.network.routers0.msg_count.Writeback_Control::0          237                      
system.ruby.network.routers0.msg_bytes.Control::0        56120                      
system.ruby.network.routers0.msg_bytes.Request_Control::0         2472                      
system.ruby.network.routers0.msg_bytes.Response_Data::1      1006400                      
system.ruby.network.routers0.msg_bytes.Response_Control::1         7640                      
system.ruby.network.routers0.msg_bytes.Response_Control::2        11856                      
system.ruby.network.routers0.msg_bytes.Writeback_Data::0        79560                      
system.ruby.network.routers0.msg_bytes.Writeback_Control::0         1896                      
system.ruby.l2_cntrl0.L2cache.demand_hits         6496                       # Number of cache demand hits
system.ruby.l2_cntrl0.L2cache.demand_misses         2299                       # Number of cache demand misses
system.ruby.l2_cntrl0.L2cache.demand_accesses         8795                       # Number of cache demand accesses
system.ruby.network.routers1.percent_links_utilized     0.147580                      
system.ruby.network.routers1.msg_count.Control::0        10471                      
system.ruby.network.routers1.msg_count.Request_Control::0          776                      
system.ruby.network.routers1.msg_count.Response_Data::1        10192                      
system.ruby.network.routers1.msg_count.Response_Control::1         1570                      
system.ruby.network.routers1.msg_count.Response_Control::2         3099                      
system.ruby.network.routers1.msg_count.Writeback_Data::0         1129                      
system.ruby.network.routers1.msg_count.Writeback_Control::0          373                      
system.ruby.network.routers1.msg_bytes.Control::0        83768                      
system.ruby.network.routers1.msg_bytes.Request_Control::0         6208                      
system.ruby.network.routers1.msg_bytes.Response_Data::1      1386112                      
system.ruby.network.routers1.msg_bytes.Response_Control::1        12560                      
system.ruby.network.routers1.msg_bytes.Response_Control::2        24792                      
system.ruby.network.routers1.msg_bytes.Writeback_Data::0       153544                      
system.ruby.network.routers1.msg_bytes.Writeback_Control::0         2984                      
system.ruby.dir_cntrl0.memBuffer.clk_domain.clock         2500                       # Clock period in ticks
system.ruby.dir_cntrl0.memBuffer.memReq          1676                       # Total number of memory requests
system.ruby.dir_cntrl0.memBuffer.memRead         1676                       # Number of memory reads
system.ruby.dir_cntrl0.memBuffer.memRefresh        12693                       # Number of memory refreshes
system.ruby.dir_cntrl0.memBuffer.memWaitCycles          427                       # Delay stalled at the head of the bank queue
system.ruby.dir_cntrl0.memBuffer.memInputQ           30                       # Delay in the input queue
system.ruby.dir_cntrl0.memBuffer.memBankQ            3                       # Delay behind the head of the bank queue
system.ruby.dir_cntrl0.memBuffer.totalStalls          460                       # Total number of stall cycles
system.ruby.dir_cntrl0.memBuffer.stallsPerReq     0.274463                       # Expected number of stall cycles per request
system.ruby.dir_cntrl0.memBuffer.memBankBusy          176                       # memory stalls due to busy bank
system.ruby.dir_cntrl0.memBuffer.memBusBusy          131                       # memory stalls due to busy bus
system.ruby.dir_cntrl0.memBuffer.memDataBusBusy           62                       # memory stalls due to read read turnaround
system.ruby.dir_cntrl0.memBuffer.memArbWait           58                       # memory stalls due to arbitration
system.ruby.dir_cntrl0.memBuffer.memBankCount |          49      2.92%      2.92% |          54      3.22%      6.15% |          54      3.22%      9.37% |          56      3.34%     12.71% |          51      3.04%     15.75% |          50      2.98%     18.74% |          47      2.80%     21.54% |          50      2.98%     24.52% |          50      2.98%     27.51% |          49      2.92%     30.43% |          57      3.40%     33.83% |          50      2.98%     36.81% |          47      2.80%     39.62% |          50      2.98%     42.60% |          55      3.28%     45.88% |          54      3.22%     49.11% |          60      3.58%     52.68% |          62      3.70%     56.38% |          50      2.98%     59.37% |          54      3.22%     62.59% |          42      2.51%     65.10% |          44      2.63%     67.72% |          52      3.10%     70.82% |          59      3.52%     74.34% |          61      3.64%     77.98% |          56      3.34%     81.32% |          54      3.22%     84.55% |          50      2.98%     87.53% |          48      2.86%     90.39% |          52      3.10%     93.50% |          56      3.34%     96.84% |          53      3.16%    100.00% # Number of accesses per bank
system.ruby.dir_cntrl0.memBuffer.memBankCount::total         1676                       # Number of accesses per bank
system.ruby.network.routers2.percent_links_utilized     0.021328                      
system.ruby.network.routers2.msg_count.Control::0         1676                      
system.ruby.network.routers2.msg_count.Response_Data::1         1676                      
system.ruby.network.routers2.msg_bytes.Control::0        13408                      
system.ruby.network.routers2.msg_bytes.Response_Data::1       227936                      
system.ruby.l1_cntrl_sp00.L1Dcache.demand_hits          597                       # Number of cache demand hits
system.ruby.l1_cntrl_sp00.L1Dcache.demand_misses          139                       # Number of cache demand misses
system.ruby.l1_cntrl_sp00.L1Dcache.demand_accesses          736                       # Number of cache demand accesses
system.ruby.l1_cntrl_sp00.L1Icache.demand_hits            0                       # Number of cache demand hits
system.ruby.l1_cntrl_sp00.L1Icache.demand_misses           12                       # Number of cache demand misses
system.ruby.l1_cntrl_sp00.L1Icache.demand_accesses           12                       # Number of cache demand accesses
system.ruby.l1_cntrl_sp00.prefetcher.miss_observed            0                       # number of misses observed
system.ruby.l1_cntrl_sp00.prefetcher.allocated_streams            0                       # number of streams allocated for prefetching
system.ruby.l1_cntrl_sp00.prefetcher.prefetches_requested            0                       # number of prefetch requests made
system.ruby.l1_cntrl_sp00.prefetcher.prefetches_accepted            0                       # number of prefetch requests accepted
system.ruby.l1_cntrl_sp00.prefetcher.dropped_prefetches            0                       # number of prefetch requests dropped
system.ruby.l1_cntrl_sp00.prefetcher.hits            0                       # number of prefetched blocks accessed
system.ruby.l1_cntrl_sp00.prefetcher.partial_hits            0                       # number of misses observed for a block being prefetched
system.ruby.l1_cntrl_sp00.prefetcher.pages_crossed            0                       # number of prefetches across pages
system.ruby.l1_cntrl_sp00.prefetcher.misses_on_prefetched_blocks            0                       # number of misses for blocks that were prefetched, yet missed
system.ruby.network.routers3.percent_links_utilized     0.003507                      
system.ruby.network.routers3.msg_count.Control::0          151                      
system.ruby.network.routers3.msg_count.Request_Control::0           96                      
system.ruby.network.routers3.msg_count.Response_Data::1          266                      
system.ruby.network.routers3.msg_count.Response_Control::1           53                      
system.ruby.network.routers3.msg_count.Response_Control::2          138                      
system.ruby.network.routers3.msg_bytes.Control::0         1208                      
system.ruby.network.routers3.msg_bytes.Request_Control::0          768                      
system.ruby.network.routers3.msg_bytes.Response_Data::1        36176                      
system.ruby.network.routers3.msg_bytes.Response_Control::1          424                      
system.ruby.network.routers3.msg_bytes.Response_Control::2         1104                      
system.ruby.l1_cntrl_sp01.L1Dcache.demand_hits          589                       # Number of cache demand hits
system.ruby.l1_cntrl_sp01.L1Dcache.demand_misses          154                       # Number of cache demand misses
system.ruby.l1_cntrl_sp01.L1Dcache.demand_accesses          743                       # Number of cache demand accesses
system.ruby.l1_cntrl_sp01.L1Icache.demand_hits            0                       # Number of cache demand hits
system.ruby.l1_cntrl_sp01.L1Icache.demand_misses           13                       # Number of cache demand misses
system.ruby.l1_cntrl_sp01.L1Icache.demand_accesses           13                       # Number of cache demand accesses
system.ruby.l1_cntrl_sp01.prefetcher.miss_observed            0                       # number of misses observed
system.ruby.l1_cntrl_sp01.prefetcher.allocated_streams            0                       # number of streams allocated for prefetching
system.ruby.l1_cntrl_sp01.prefetcher.prefetches_requested            0                       # number of prefetch requests made
system.ruby.l1_cntrl_sp01.prefetcher.prefetches_accepted            0                       # number of prefetch requests accepted
system.ruby.l1_cntrl_sp01.prefetcher.dropped_prefetches            0                       # number of prefetch requests dropped
system.ruby.l1_cntrl_sp01.prefetcher.hits            0                       # number of prefetched blocks accessed
system.ruby.l1_cntrl_sp01.prefetcher.partial_hits            0                       # number of misses observed for a block being prefetched
system.ruby.l1_cntrl_sp01.prefetcher.pages_crossed            0                       # number of prefetches across pages
system.ruby.l1_cntrl_sp01.prefetcher.misses_on_prefetched_blocks            0                       # number of misses for blocks that were prefetched, yet missed
system.ruby.network.routers4.percent_links_utilized     0.003994                      
system.ruby.network.routers4.msg_count.Control::0          167                      
system.ruby.network.routers4.msg_count.Request_Control::0          117                      
system.ruby.network.routers4.msg_count.Response_Data::1          304                      
system.ruby.network.routers4.msg_count.Response_Control::1           44                      
system.ruby.network.routers4.msg_count.Response_Control::2          154                      
system.ruby.network.routers4.msg_bytes.Control::0         1336                      
system.ruby.network.routers4.msg_bytes.Request_Control::0          936                      
system.ruby.network.routers4.msg_bytes.Response_Data::1        41344                      
system.ruby.network.routers4.msg_bytes.Response_Control::1          352                      
system.ruby.network.routers4.msg_bytes.Response_Control::2         1232                      
system.ruby.l1_cntrl_sp02.L1Dcache.demand_hits          607                       # Number of cache demand hits
system.ruby.l1_cntrl_sp02.L1Dcache.demand_misses          129                       # Number of cache demand misses
system.ruby.l1_cntrl_sp02.L1Dcache.demand_accesses          736                       # Number of cache demand accesses
system.ruby.l1_cntrl_sp02.L1Icache.demand_hits            0                       # Number of cache demand hits
system.ruby.l1_cntrl_sp02.L1Icache.demand_misses           12                       # Number of cache demand misses
system.ruby.l1_cntrl_sp02.L1Icache.demand_accesses           12                       # Number of cache demand accesses
system.ruby.l1_cntrl_sp02.prefetcher.miss_observed            0                       # number of misses observed
system.ruby.l1_cntrl_sp02.prefetcher.allocated_streams            0                       # number of streams allocated for prefetching
system.ruby.l1_cntrl_sp02.prefetcher.prefetches_requested            0                       # number of prefetch requests made
system.ruby.l1_cntrl_sp02.prefetcher.prefetches_accepted            0                       # number of prefetch requests accepted
system.ruby.l1_cntrl_sp02.prefetcher.dropped_prefetches            0                       # number of prefetch requests dropped
system.ruby.l1_cntrl_sp02.prefetcher.hits            0                       # number of prefetched blocks accessed
system.ruby.l1_cntrl_sp02.prefetcher.partial_hits            0                       # number of misses observed for a block being prefetched
system.ruby.l1_cntrl_sp02.prefetcher.pages_crossed            0                       # number of prefetches across pages
system.ruby.l1_cntrl_sp02.prefetcher.misses_on_prefetched_blocks            0                       # number of misses for blocks that were prefetched, yet missed
system.ruby.network.routers5.percent_links_utilized     0.003433                      
system.ruby.network.routers5.msg_count.Control::0          141                      
system.ruby.network.routers5.msg_count.Request_Control::0           93                      
system.ruby.network.routers5.msg_count.Response_Data::1          263                      
system.ruby.network.routers5.msg_count.Response_Control::1           25                      
system.ruby.network.routers5.msg_count.Response_Control::2          126                      
system.ruby.network.routers5.msg_bytes.Control::0         1128                      
system.ruby.network.routers5.msg_bytes.Request_Control::0          744                      
system.ruby.network.routers5.msg_bytes.Response_Data::1        35768                      
system.ruby.network.routers5.msg_bytes.Response_Control::1          200                      
system.ruby.network.routers5.msg_bytes.Response_Control::2         1008                      
system.ruby.l1_cntrl_sp03.L1Dcache.demand_hits          580                       # Number of cache demand hits
system.ruby.l1_cntrl_sp03.L1Dcache.demand_misses          156                       # Number of cache demand misses
system.ruby.l1_cntrl_sp03.L1Dcache.demand_accesses          736                       # Number of cache demand accesses
system.ruby.l1_cntrl_sp03.L1Icache.demand_hits            0                       # Number of cache demand hits
system.ruby.l1_cntrl_sp03.L1Icache.demand_misses           12                       # Number of cache demand misses
system.ruby.l1_cntrl_sp03.L1Icache.demand_accesses           12                       # Number of cache demand accesses
system.ruby.l1_cntrl_sp03.prefetcher.miss_observed            0                       # number of misses observed
system.ruby.l1_cntrl_sp03.prefetcher.allocated_streams            0                       # number of streams allocated for prefetching
system.ruby.l1_cntrl_sp03.prefetcher.prefetches_requested            0                       # number of prefetch requests made
system.ruby.l1_cntrl_sp03.prefetcher.prefetches_accepted            0                       # number of prefetch requests accepted
system.ruby.l1_cntrl_sp03.prefetcher.dropped_prefetches            0                       # number of prefetch requests dropped
system.ruby.l1_cntrl_sp03.prefetcher.hits            0                       # number of prefetched blocks accessed
system.ruby.l1_cntrl_sp03.prefetcher.partial_hits            0                       # number of misses observed for a block being prefetched
system.ruby.l1_cntrl_sp03.prefetcher.pages_crossed            0                       # number of prefetches across pages
system.ruby.l1_cntrl_sp03.prefetcher.misses_on_prefetched_blocks            0                       # number of misses for blocks that were prefetched, yet missed
system.ruby.network.routers6.percent_links_utilized     0.004014                      
system.ruby.network.routers6.msg_count.Control::0          168                      
system.ruby.network.routers6.msg_count.Request_Control::0          119                      
system.ruby.network.routers6.msg_count.Response_Data::1          305                      
system.ruby.network.routers6.msg_count.Response_Control::1           51                      
system.ruby.network.routers6.msg_count.Response_Control::2          155                      
system.ruby.network.routers6.msg_bytes.Control::0         1344                      
system.ruby.network.routers6.msg_bytes.Request_Control::0          952                      
system.ruby.network.routers6.msg_bytes.Response_Data::1        41480                      
system.ruby.network.routers6.msg_bytes.Response_Control::1          408                      
system.ruby.network.routers6.msg_bytes.Response_Control::2         1240                      
system.ruby.l1_pw_cntrl.L1Dcache.demand_hits            0                       # Number of cache demand hits
system.ruby.l1_pw_cntrl.L1Dcache.demand_misses            0                       # Number of cache demand misses
system.ruby.l1_pw_cntrl.L1Dcache.demand_accesses            0                       # Number of cache demand accesses
system.ruby.l1_pw_cntrl.L1Icache.demand_hits            0                       # Number of cache demand hits
system.ruby.l1_pw_cntrl.L1Icache.demand_misses            0                       # Number of cache demand misses
system.ruby.l1_pw_cntrl.L1Icache.demand_accesses            0                       # Number of cache demand accesses
system.ruby.l1_pw_cntrl.prefetcher.miss_observed            0                       # number of misses observed
system.ruby.l1_pw_cntrl.prefetcher.allocated_streams            0                       # number of streams allocated for prefetching
system.ruby.l1_pw_cntrl.prefetcher.prefetches_requested            0                       # number of prefetch requests made
system.ruby.l1_pw_cntrl.prefetcher.prefetches_accepted            0                       # number of prefetch requests accepted
system.ruby.l1_pw_cntrl.prefetcher.dropped_prefetches            0                       # number of prefetch requests dropped
system.ruby.l1_pw_cntrl.prefetcher.hits             0                       # number of prefetched blocks accessed
system.ruby.l1_pw_cntrl.prefetcher.partial_hits            0                       # number of misses observed for a block being prefetched
system.ruby.l1_pw_cntrl.prefetcher.pages_crossed            0                       # number of prefetches across pages
system.ruby.l1_pw_cntrl.prefetcher.misses_on_prefetched_blocks            0                       # number of misses for blocks that were prefetched, yet missed
system.ruby.network.routers7.percent_links_utilized            0                      
system.ruby.network.routers8.percent_links_utilized     0.023253                      
system.ruby.network.routers8.msg_count.Control::0         1153                      
system.ruby.network.routers8.msg_count.Request_Control::0           51                      
system.ruby.network.routers8.msg_count.Response_Data::1         1203                      
system.ruby.network.routers8.msg_count.Response_Control::1          808                      
system.ruby.network.routers8.msg_count.Response_Control::2         1044                      
system.ruby.network.routers8.msg_count.Writeback_Data::0          544                      
system.ruby.network.routers8.msg_count.Writeback_Control::0          136                      
system.ruby.network.routers8.msg_bytes.Control::0         9224                      
system.ruby.network.routers8.msg_bytes.Request_Control::0          408                      
system.ruby.network.routers8.msg_bytes.Response_Data::1       163608                      
system.ruby.network.routers8.msg_bytes.Response_Control::1         6464                      
system.ruby.network.routers8.msg_bytes.Response_Control::2         8352                      
system.ruby.network.routers8.msg_bytes.Writeback_Data::0        73984                      
system.ruby.network.routers8.msg_bytes.Writeback_Control::0         1088                      
system.ruby.network.routers9.percent_links_utilized     0.034490                      
system.ruby.network.routers9.msg_count.Control::0        10471                      
system.ruby.network.routers9.msg_count.Request_Control::0          785                      
system.ruby.network.routers9.msg_count.Response_Data::1        10815                      
system.ruby.network.routers9.msg_count.Response_Control::1         1753                      
system.ruby.network.routers9.msg_count.Response_Control::2         3099                      
system.ruby.network.routers9.msg_count.Writeback_Data::0         1129                      
system.ruby.network.routers9.msg_count.Writeback_Control::0          373                      
system.ruby.network.routers9.msg_bytes.Control::0        83768                      
system.ruby.network.routers9.msg_bytes.Request_Control::0         6280                      
system.ruby.network.routers9.msg_bytes.Response_Data::1      1470840                      
system.ruby.network.routers9.msg_bytes.Response_Control::1        14024                      
system.ruby.network.routers9.msg_bytes.Response_Control::2        24792                      
system.ruby.network.routers9.msg_bytes.Writeback_Data::0       153544                      
system.ruby.network.routers9.msg_bytes.Writeback_Control::0         2984                      
system.ruby.network.msg_count.Control           31413                      
system.ruby.network.msg_count.Request_Control         2346                      
system.ruby.network.msg_count.Response_Data        32424                      
system.ruby.network.msg_count.Response_Control        14556                      
system.ruby.network.msg_count.Writeback_Data         3387                      
system.ruby.network.msg_count.Writeback_Control         1119                      
system.ruby.network.msg_byte.Control           251304                      
system.ruby.network.msg_byte.Request_Control        18768                      
system.ruby.network.msg_byte.Response_Data      4409664                      
system.ruby.network.msg_byte.Response_Control       116448                      
system.ruby.network.msg_byte.Writeback_Data       460632                      
system.ruby.network.msg_byte.Writeback_Control         8952                      
system.ruby.memctrl_clk_domain.clock             1500                       # Clock period in ticks
system.cpu_voltage_domain.voltage                   1                       # Voltage in Volts
system.gpu.voltage_domain.voltage                   1                       # Voltage in Volts
system.gpu.clk_domain.clock                      1429                       # Clock period in ticks
system.gpu.shader_mmu.numPagefaults                 0                       # Number of Pagefaults
system.gpu.shader_mmu.numPagewalks                168                       # Number of Pagewalks
system.gpu.shader_mmu.totalRequests               168                       # Total number of requests
system.gpu.shader_mmu.retryFailures                 0                       # Times the retry walk after a pagefault failed
system.gpu.shader_mmu.l2hits                        0                       # Hits in the shared L2
system.gpu.shader_mmu.prefetchHits                  0                       # Number of prefetch hits
system.gpu.shader_mmu.numPrefetches                 0                       # Number of prefetchs
system.gpu.shader_mmu.prefetchFaults                0                       # Number of faults caused by prefetches
system.gpu.shader_mmu.pagefaultLatency::samples            0                       # Latency to complete the pagefault
system.gpu.shader_mmu.pagefaultLatency::mean          nan                       # Latency to complete the pagefault
system.gpu.shader_mmu.pagefaultLatency::gmean          nan                       # Latency to complete the pagefault
system.gpu.shader_mmu.pagefaultLatency::stdev          nan                       # Latency to complete the pagefault
system.gpu.shader_mmu.pagefaultLatency::0            0                       # Latency to complete the pagefault
system.gpu.shader_mmu.pagefaultLatency::1            0                       # Latency to complete the pagefault
system.gpu.shader_mmu.pagefaultLatency::2            0                       # Latency to complete the pagefault
system.gpu.shader_mmu.pagefaultLatency::3            0                       # Latency to complete the pagefault
system.gpu.shader_mmu.pagefaultLatency::4            0                       # Latency to complete the pagefault
system.gpu.shader_mmu.pagefaultLatency::5            0                       # Latency to complete the pagefault
system.gpu.shader_mmu.pagefaultLatency::6            0                       # Latency to complete the pagefault
system.gpu.shader_mmu.pagefaultLatency::7            0                       # Latency to complete the pagefault
system.gpu.shader_mmu.pagefaultLatency::8            0                       # Latency to complete the pagefault
system.gpu.shader_mmu.pagefaultLatency::9            0                       # Latency to complete the pagefault
system.gpu.shader_mmu.pagefaultLatency::10            0                       # Latency to complete the pagefault
system.gpu.shader_mmu.pagefaultLatency::11            0                       # Latency to complete the pagefault
system.gpu.shader_mmu.pagefaultLatency::12            0                       # Latency to complete the pagefault
system.gpu.shader_mmu.pagefaultLatency::13            0                       # Latency to complete the pagefault
system.gpu.shader_mmu.pagefaultLatency::14            0                       # Latency to complete the pagefault
system.gpu.shader_mmu.pagefaultLatency::15            0                       # Latency to complete the pagefault
system.gpu.shader_mmu.pagefaultLatency::16            0                       # Latency to complete the pagefault
system.gpu.shader_mmu.pagefaultLatency::17            0                       # Latency to complete the pagefault
system.gpu.shader_mmu.pagefaultLatency::18            0                       # Latency to complete the pagefault
system.gpu.shader_mmu.pagefaultLatency::19            0                       # Latency to complete the pagefault
system.gpu.shader_mmu.pagefaultLatency::20            0                       # Latency to complete the pagefault
system.gpu.shader_mmu.pagefaultLatency::21            0                       # Latency to complete the pagefault
system.gpu.shader_mmu.pagefaultLatency::22            0                       # Latency to complete the pagefault
system.gpu.shader_mmu.pagefaultLatency::23            0                       # Latency to complete the pagefault
system.gpu.shader_mmu.pagefaultLatency::24            0                       # Latency to complete the pagefault
system.gpu.shader_mmu.pagefaultLatency::25            0                       # Latency to complete the pagefault
system.gpu.shader_mmu.pagefaultLatency::26            0                       # Latency to complete the pagefault
system.gpu.shader_mmu.pagefaultLatency::27            0                       # Latency to complete the pagefault
system.gpu.shader_mmu.pagefaultLatency::28            0                       # Latency to complete the pagefault
system.gpu.shader_mmu.pagefaultLatency::29            0                       # Latency to complete the pagefault
system.gpu.shader_mmu.pagefaultLatency::30            0                       # Latency to complete the pagefault
system.gpu.shader_mmu.pagefaultLatency::31            0                       # Latency to complete the pagefault
system.gpu.shader_mmu.pagefaultLatency::total            0                       # Latency to complete the pagefault
system.gpu.shader_mmu.concurrentWalks::samples          168                       # Number of outstanding walks
system.gpu.shader_mmu.concurrentWalks::mean            0                       # Number of outstanding walks
system.gpu.shader_mmu.concurrentWalks::gmean            0                       # Number of outstanding walks
system.gpu.shader_mmu.concurrentWalks::stdev            0                       # Number of outstanding walks
system.gpu.shader_mmu.concurrentWalks::0          168    100.00%    100.00% # Number of outstanding walks
system.gpu.shader_mmu.concurrentWalks::1            0      0.00%    100.00% # Number of outstanding walks
system.gpu.shader_mmu.concurrentWalks::2            0      0.00%    100.00% # Number of outstanding walks
system.gpu.shader_mmu.concurrentWalks::3            0      0.00%    100.00% # Number of outstanding walks
system.gpu.shader_mmu.concurrentWalks::4            0      0.00%    100.00% # Number of outstanding walks
system.gpu.shader_mmu.concurrentWalks::5            0      0.00%    100.00% # Number of outstanding walks
system.gpu.shader_mmu.concurrentWalks::6            0      0.00%    100.00% # Number of outstanding walks
system.gpu.shader_mmu.concurrentWalks::7            0      0.00%    100.00% # Number of outstanding walks
system.gpu.shader_mmu.concurrentWalks::8            0      0.00%    100.00% # Number of outstanding walks
system.gpu.shader_mmu.concurrentWalks::9            0      0.00%    100.00% # Number of outstanding walks
system.gpu.shader_mmu.concurrentWalks::10            0      0.00%    100.00% # Number of outstanding walks
system.gpu.shader_mmu.concurrentWalks::11            0      0.00%    100.00% # Number of outstanding walks
system.gpu.shader_mmu.concurrentWalks::12            0      0.00%    100.00% # Number of outstanding walks
system.gpu.shader_mmu.concurrentWalks::13            0      0.00%    100.00% # Number of outstanding walks
system.gpu.shader_mmu.concurrentWalks::14            0      0.00%    100.00% # Number of outstanding walks
system.gpu.shader_mmu.concurrentWalks::15            0      0.00%    100.00% # Number of outstanding walks
system.gpu.shader_mmu.concurrentWalks::total          168                       # Number of outstanding walks
system.gpu.shader_mmu.pagewalkLatency::samples          168                       # Latency to complete the pagewalk
system.gpu.shader_mmu.pagewalkLatency::mean            0                       # Latency to complete the pagewalk
system.gpu.shader_mmu.pagewalkLatency::gmean            0                       # Latency to complete the pagewalk
system.gpu.shader_mmu.pagewalkLatency::stdev            0                       # Latency to complete the pagewalk
system.gpu.shader_mmu.pagewalkLatency::0          168    100.00%    100.00% # Latency to complete the pagewalk
system.gpu.shader_mmu.pagewalkLatency::1            0      0.00%    100.00% # Latency to complete the pagewalk
system.gpu.shader_mmu.pagewalkLatency::2            0      0.00%    100.00% # Latency to complete the pagewalk
system.gpu.shader_mmu.pagewalkLatency::3            0      0.00%    100.00% # Latency to complete the pagewalk
system.gpu.shader_mmu.pagewalkLatency::4            0      0.00%    100.00% # Latency to complete the pagewalk
system.gpu.shader_mmu.pagewalkLatency::5            0      0.00%    100.00% # Latency to complete the pagewalk
system.gpu.shader_mmu.pagewalkLatency::6            0      0.00%    100.00% # Latency to complete the pagewalk
system.gpu.shader_mmu.pagewalkLatency::7            0      0.00%    100.00% # Latency to complete the pagewalk
system.gpu.shader_mmu.pagewalkLatency::8            0      0.00%    100.00% # Latency to complete the pagewalk
system.gpu.shader_mmu.pagewalkLatency::9            0      0.00%    100.00% # Latency to complete the pagewalk
system.gpu.shader_mmu.pagewalkLatency::10            0      0.00%    100.00% # Latency to complete the pagewalk
system.gpu.shader_mmu.pagewalkLatency::11            0      0.00%    100.00% # Latency to complete the pagewalk
system.gpu.shader_mmu.pagewalkLatency::12            0      0.00%    100.00% # Latency to complete the pagewalk
system.gpu.shader_mmu.pagewalkLatency::13            0      0.00%    100.00% # Latency to complete the pagewalk
system.gpu.shader_mmu.pagewalkLatency::14            0      0.00%    100.00% # Latency to complete the pagewalk
system.gpu.shader_mmu.pagewalkLatency::15            0      0.00%    100.00% # Latency to complete the pagewalk
system.gpu.shader_mmu.pagewalkLatency::16            0      0.00%    100.00% # Latency to complete the pagewalk
system.gpu.shader_mmu.pagewalkLatency::17            0      0.00%    100.00% # Latency to complete the pagewalk
system.gpu.shader_mmu.pagewalkLatency::18            0      0.00%    100.00% # Latency to complete the pagewalk
system.gpu.shader_mmu.pagewalkLatency::19            0      0.00%    100.00% # Latency to complete the pagewalk
system.gpu.shader_mmu.pagewalkLatency::20            0      0.00%    100.00% # Latency to complete the pagewalk
system.gpu.shader_mmu.pagewalkLatency::21            0      0.00%    100.00% # Latency to complete the pagewalk
system.gpu.shader_mmu.pagewalkLatency::22            0      0.00%    100.00% # Latency to complete the pagewalk
system.gpu.shader_mmu.pagewalkLatency::23            0      0.00%    100.00% # Latency to complete the pagewalk
system.gpu.shader_mmu.pagewalkLatency::24            0      0.00%    100.00% # Latency to complete the pagewalk
system.gpu.shader_mmu.pagewalkLatency::25            0      0.00%    100.00% # Latency to complete the pagewalk
system.gpu.shader_mmu.pagewalkLatency::26            0      0.00%    100.00% # Latency to complete the pagewalk
system.gpu.shader_mmu.pagewalkLatency::27            0      0.00%    100.00% # Latency to complete the pagewalk
system.gpu.shader_mmu.pagewalkLatency::28            0      0.00%    100.00% # Latency to complete the pagewalk
system.gpu.shader_mmu.pagewalkLatency::29            0      0.00%    100.00% # Latency to complete the pagewalk
system.gpu.shader_mmu.pagewalkLatency::30            0      0.00%    100.00% # Latency to complete the pagewalk
system.gpu.shader_mmu.pagewalkLatency::31            0      0.00%    100.00% # Latency to complete the pagewalk
system.gpu.shader_mmu.pagewalkLatency::total          168                       # Latency to complete the pagewalk
system.gpu.kernels_completed                        2                       # Number of kernels completed
system.gpu.shader_cores0.itb.hits                   0                       # Number of hits in this TLB
system.gpu.shader_cores0.itb.misses                 0                       # Number of misses in this TLB
system.gpu.shader_cores0.itb.hitRate              nan                       # Hit rate for this TLB
system.gpu.shader_cores0.local_loads                0                       # Number of loads from local space
system.gpu.shader_cores0.local_stores               0                       # Number of stores to local space
system.gpu.shader_cores0.shared_loads            5056                       # Number of loads from shared space
system.gpu.shader_cores0.shared_stores           3072                       # Number of stores to shared space
system.gpu.shader_cores0.param_kernel_loads         7296                       # Number of loads from kernel parameter space
system.gpu.shader_cores0.param_local_loads            0                       # Number of loads from local parameter space
system.gpu.shader_cores0.param_local_stores            0                       # Number of stores to local parameter space
system.gpu.shader_cores0.const_loads                0                       # Number of loads from constant space
system.gpu.shader_cores0.tex_loads                  0                       # Number of loads from texture space
system.gpu.shader_cores0.global_loads            8256                       # Number of loads from global space
system.gpu.shader_cores0.global_stores           3136                       # Number of stores to global space
system.gpu.shader_cores0.surf_loads                 0                       # Number of loads from surface space
system.gpu.shader_cores0.generic_loads              0                       # Number of loads from generic spaces (global, shared, local)
system.gpu.shader_cores0.generic_stores             0                       # Number of stores to generic spaces (global, shared, local)
system.gpu.shader_cores0.inst_cache_requests           12                       # Number of instruction cache requests sent
system.gpu.shader_cores0.inst_cache_retries            0                       # Number of instruction cache retries
system.gpu.shader_cores0.inst_counts::0             0                       # Inst counts: 1: ALU, 2: MAD, 3: CTRL, 4: SFU, 5: MEM, 6: TEX, 7: NOP
system.gpu.shader_cores0.inst_counts::1        130176                       # Inst counts: 1: ALU, 2: MAD, 3: CTRL, 4: SFU, 5: MEM, 6: TEX, 7: NOP
system.gpu.shader_cores0.inst_counts::2          2048                       # Inst counts: 1: ALU, 2: MAD, 3: CTRL, 4: SFU, 5: MEM, 6: TEX, 7: NOP
system.gpu.shader_cores0.inst_counts::3         20416                       # Inst counts: 1: ALU, 2: MAD, 3: CTRL, 4: SFU, 5: MEM, 6: TEX, 7: NOP
system.gpu.shader_cores0.inst_counts::4          6144                       # Inst counts: 1: ALU, 2: MAD, 3: CTRL, 4: SFU, 5: MEM, 6: TEX, 7: NOP
system.gpu.shader_cores0.inst_counts::5         26816                       # Inst counts: 1: ALU, 2: MAD, 3: CTRL, 4: SFU, 5: MEM, 6: TEX, 7: NOP
system.gpu.shader_cores0.inst_counts::6             0                       # Inst counts: 1: ALU, 2: MAD, 3: CTRL, 4: SFU, 5: MEM, 6: TEX, 7: NOP
system.gpu.shader_cores0.inst_counts::7             0                       # Inst counts: 1: ALU, 2: MAD, 3: CTRL, 4: SFU, 5: MEM, 6: TEX, 7: NOP
system.gpu.shader_cores0.activeCycles            7472                       # Number of cycles this shader was executing a CTA
system.gpu.shader_cores0.notStalledCycles         5900                       # Number of cycles this shader was actually executing at least one instance
system.gpu.shader_cores0.instInstances         185600                       # Total instructions executed by all PEs in the core
system.gpu.shader_cores0.instPerCycle       24.839400                       # Instruction instances per cycle
system.gpu.shader_cores0.kernels_completed            2                       # Number of kernels completed
system.gpu.shader_cores0.lsq.data_tlb.hits            0                       # Number of hits in this TLB
system.gpu.shader_cores0.lsq.data_tlb.misses            0                       # Number of misses in this TLB
system.gpu.shader_cores0.lsq.data_tlb.hitRate          nan                       # Hit rate for this TLB
system.gpu.shader_cores0.lsq.warpInstBufActive::samples      9100822                       # Histogram of number of active warp inst buffers at a given time
system.gpu.shader_cores0.lsq.warpInstBufActive::mean     3.631229                       # Histogram of number of active warp inst buffers at a given time
system.gpu.shader_cores0.lsq.warpInstBufActive::gmean          nan                       # Histogram of number of active warp inst buffers at a given time
system.gpu.shader_cores0.lsq.warpInstBufActive::stdev     7.315956                       # Histogram of number of active warp inst buffers at a given time
system.gpu.shader_cores0.lsq.warpInstBufActive::0      5886187     64.68%     64.68% # Histogram of number of active warp inst buffers at a given time
system.gpu.shader_cores0.lsq.warpInstBufActive::1       366429      4.03%     68.70% # Histogram of number of active warp inst buffers at a given time
system.gpu.shader_cores0.lsq.warpInstBufActive::2       398121      4.37%     73.08% # Histogram of number of active warp inst buffers at a given time
system.gpu.shader_cores0.lsq.warpInstBufActive::3       238105      2.62%     75.69% # Histogram of number of active warp inst buffers at a given time
system.gpu.shader_cores0.lsq.warpInstBufActive::4       210949      2.32%     78.01% # Histogram of number of active warp inst buffers at a given time
system.gpu.shader_cores0.lsq.warpInstBufActive::5       109309      1.20%     79.21% # Histogram of number of active warp inst buffers at a given time
system.gpu.shader_cores0.lsq.warpInstBufActive::6       114044      1.25%     80.47% # Histogram of number of active warp inst buffers at a given time
system.gpu.shader_cores0.lsq.warpInstBufActive::7       117634      1.29%     81.76% # Histogram of number of active warp inst buffers at a given time
system.gpu.shader_cores0.lsq.warpInstBufActive::8       135296      1.49%     83.25% # Histogram of number of active warp inst buffers at a given time
system.gpu.shader_cores0.lsq.warpInstBufActive::9        88394      0.97%     84.22% # Histogram of number of active warp inst buffers at a given time
system.gpu.shader_cores0.lsq.warpInstBufActive::10       130051      1.43%     85.65% # Histogram of number of active warp inst buffers at a given time
system.gpu.shader_cores0.lsq.warpInstBufActive::11       143667      1.58%     87.22% # Histogram of number of active warp inst buffers at a given time
system.gpu.shader_cores0.lsq.warpInstBufActive::12        47059      0.52%     87.74% # Histogram of number of active warp inst buffers at a given time
system.gpu.shader_cores0.lsq.warpInstBufActive::13        44566      0.49%     88.23% # Histogram of number of active warp inst buffers at a given time
system.gpu.shader_cores0.lsq.warpInstBufActive::14        35984      0.40%     88.63% # Histogram of number of active warp inst buffers at a given time
system.gpu.shader_cores0.lsq.warpInstBufActive::15       182157      2.00%     90.63% # Histogram of number of active warp inst buffers at a given time
system.gpu.shader_cores0.lsq.warpInstBufActive::16       366638      4.03%     94.66% # Histogram of number of active warp inst buffers at a given time
system.gpu.shader_cores0.lsq.warpInstBufActive::17        22673      0.25%     94.91% # Histogram of number of active warp inst buffers at a given time
system.gpu.shader_cores0.lsq.warpInstBufActive::18        20210      0.22%     95.13% # Histogram of number of active warp inst buffers at a given time
system.gpu.shader_cores0.lsq.warpInstBufActive::19        30982      0.34%     95.47% # Histogram of number of active warp inst buffers at a given time
system.gpu.shader_cores0.lsq.warpInstBufActive::20        22197      0.24%     95.71% # Histogram of number of active warp inst buffers at a given time
system.gpu.shader_cores0.lsq.warpInstBufActive::21        29248      0.32%     96.03% # Histogram of number of active warp inst buffers at a given time
system.gpu.shader_cores0.lsq.warpInstBufActive::22        22659      0.25%     96.28% # Histogram of number of active warp inst buffers at a given time
system.gpu.shader_cores0.lsq.warpInstBufActive::23        19556      0.21%     96.50% # Histogram of number of active warp inst buffers at a given time
system.gpu.shader_cores0.lsq.warpInstBufActive::24        19042      0.21%     96.71% # Histogram of number of active warp inst buffers at a given time
system.gpu.shader_cores0.lsq.warpInstBufActive::25        25620      0.28%     96.99% # Histogram of number of active warp inst buffers at a given time
system.gpu.shader_cores0.lsq.warpInstBufActive::26        26219      0.29%     97.28% # Histogram of number of active warp inst buffers at a given time
system.gpu.shader_cores0.lsq.warpInstBufActive::27        18621      0.20%     97.48% # Histogram of number of active warp inst buffers at a given time
system.gpu.shader_cores0.lsq.warpInstBufActive::28        25759      0.28%     97.76% # Histogram of number of active warp inst buffers at a given time
system.gpu.shader_cores0.lsq.warpInstBufActive::29        31185      0.34%     98.11% # Histogram of number of active warp inst buffers at a given time
system.gpu.shader_cores0.lsq.warpInstBufActive::30        26238      0.29%     98.40% # Histogram of number of active warp inst buffers at a given time
system.gpu.shader_cores0.lsq.warpInstBufActive::31        16891      0.19%     98.58% # Histogram of number of active warp inst buffers at a given time
system.gpu.shader_cores0.lsq.warpInstBufActive::32        12831      0.14%     98.72% # Histogram of number of active warp inst buffers at a given time
system.gpu.shader_cores0.lsq.warpInstBufActive::33         8614      0.09%     98.82% # Histogram of number of active warp inst buffers at a given time
system.gpu.shader_cores0.lsq.warpInstBufActive::34        19261      0.21%     99.03% # Histogram of number of active warp inst buffers at a given time
system.gpu.shader_cores0.lsq.warpInstBufActive::35        31243      0.34%     99.37% # Histogram of number of active warp inst buffers at a given time
system.gpu.shader_cores0.lsq.warpInstBufActive::36         5309      0.06%     99.43% # Histogram of number of active warp inst buffers at a given time
system.gpu.shader_cores0.lsq.warpInstBufActive::37         5212      0.06%     99.49% # Histogram of number of active warp inst buffers at a given time
system.gpu.shader_cores0.lsq.warpInstBufActive::38         6054      0.07%     99.55% # Histogram of number of active warp inst buffers at a given time
system.gpu.shader_cores0.lsq.warpInstBufActive::39        13945      0.15%     99.71% # Histogram of number of active warp inst buffers at a given time
system.gpu.shader_cores0.lsq.warpInstBufActive::40         4766      0.05%     99.76% # Histogram of number of active warp inst buffers at a given time
system.gpu.shader_cores0.lsq.warpInstBufActive::41         9505      0.10%     99.86% # Histogram of number of active warp inst buffers at a given time
system.gpu.shader_cores0.lsq.warpInstBufActive::42         9999      0.11%     99.97% # Histogram of number of active warp inst buffers at a given time
system.gpu.shader_cores0.lsq.warpInstBufActive::43         2393      0.03%    100.00% # Histogram of number of active warp inst buffers at a given time
system.gpu.shader_cores0.lsq.warpInstBufActive::44            0      0.00%    100.00% # Histogram of number of active warp inst buffers at a given time
system.gpu.shader_cores0.lsq.warpInstBufActive::45            0      0.00%    100.00% # Histogram of number of active warp inst buffers at a given time
system.gpu.shader_cores0.lsq.warpInstBufActive::46            0      0.00%    100.00% # Histogram of number of active warp inst buffers at a given time
system.gpu.shader_cores0.lsq.warpInstBufActive::47            0      0.00%    100.00% # Histogram of number of active warp inst buffers at a given time
system.gpu.shader_cores0.lsq.warpInstBufActive::48            0      0.00%    100.00% # Histogram of number of active warp inst buffers at a given time
system.gpu.shader_cores0.lsq.warpInstBufActive::49            0      0.00%    100.00% # Histogram of number of active warp inst buffers at a given time
system.gpu.shader_cores0.lsq.warpInstBufActive::50            0      0.00%    100.00% # Histogram of number of active warp inst buffers at a given time
system.gpu.shader_cores0.lsq.warpInstBufActive::51            0      0.00%    100.00% # Histogram of number of active warp inst buffers at a given time
system.gpu.shader_cores0.lsq.warpInstBufActive::52            0      0.00%    100.00% # Histogram of number of active warp inst buffers at a given time
system.gpu.shader_cores0.lsq.warpInstBufActive::53            0      0.00%    100.00% # Histogram of number of active warp inst buffers at a given time
system.gpu.shader_cores0.lsq.warpInstBufActive::54            0      0.00%    100.00% # Histogram of number of active warp inst buffers at a given time
system.gpu.shader_cores0.lsq.warpInstBufActive::55            0      0.00%    100.00% # Histogram of number of active warp inst buffers at a given time
system.gpu.shader_cores0.lsq.warpInstBufActive::56            0      0.00%    100.00% # Histogram of number of active warp inst buffers at a given time
system.gpu.shader_cores0.lsq.warpInstBufActive::57            0      0.00%    100.00% # Histogram of number of active warp inst buffers at a given time
system.gpu.shader_cores0.lsq.warpInstBufActive::58            0      0.00%    100.00% # Histogram of number of active warp inst buffers at a given time
system.gpu.shader_cores0.lsq.warpInstBufActive::59            0      0.00%    100.00% # Histogram of number of active warp inst buffers at a given time
system.gpu.shader_cores0.lsq.warpInstBufActive::60            0      0.00%    100.00% # Histogram of number of active warp inst buffers at a given time
system.gpu.shader_cores0.lsq.warpInstBufActive::61            0      0.00%    100.00% # Histogram of number of active warp inst buffers at a given time
system.gpu.shader_cores0.lsq.warpInstBufActive::62            0      0.00%    100.00% # Histogram of number of active warp inst buffers at a given time
system.gpu.shader_cores0.lsq.warpInstBufActive::63            0      0.00%    100.00% # Histogram of number of active warp inst buffers at a given time
system.gpu.shader_cores0.lsq.warpInstBufActive::64            0      0.00%    100.00% # Histogram of number of active warp inst buffers at a given time
system.gpu.shader_cores0.lsq.warpInstBufActive::total      9100822                       # Histogram of number of active warp inst buffers at a given time
system.gpu.shader_cores0.lsq.cacheAccesses     0.001674                       # Average number of concurrent outstanding cache accesses
system.gpu.shader_cores0.lsq.writebackBlockedCycles            1                       # Number of cycles blocked for core writeback stage
system.gpu.shader_cores0.lsq.mshrHitQueued           66                       # Number of hits on blocked lines in MSHRs
system.gpu.shader_cores0.lsq.mshrsFullCycles            0                       # Number of cycles stalled waiting for an MSHR
system.gpu.shader_cores0.lsq.mshrsFullCount            0                       # Number of times MSHRs filled
system.gpu.shader_cores0.lsq.warpCoalescedAccesses::samples          416                       # Number of coalesced accesses per warp instruction
system.gpu.shader_cores0.lsq.warpCoalescedAccesses::mean     1.769231                       # Number of coalesced accesses per warp instruction
system.gpu.shader_cores0.lsq.warpCoalescedAccesses::gmean     1.601517                       # Number of coalesced accesses per warp instruction
system.gpu.shader_cores0.lsq.warpCoalescedAccesses::stdev     0.782098                       # Number of coalesced accesses per warp instruction
system.gpu.shader_cores0.lsq.warpCoalescedAccesses::0            0      0.00%      0.00% # Number of coalesced accesses per warp instruction
system.gpu.shader_cores0.lsq.warpCoalescedAccesses::1          186     44.71%     44.71% # Number of coalesced accesses per warp instruction
system.gpu.shader_cores0.lsq.warpCoalescedAccesses::2          140     33.65%     78.37% # Number of coalesced accesses per warp instruction
system.gpu.shader_cores0.lsq.warpCoalescedAccesses::3           90     21.63%    100.00% # Number of coalesced accesses per warp instruction
system.gpu.shader_cores0.lsq.warpCoalescedAccesses::4            0      0.00%    100.00% # Number of coalesced accesses per warp instruction
system.gpu.shader_cores0.lsq.warpCoalescedAccesses::5            0      0.00%    100.00% # Number of coalesced accesses per warp instruction
system.gpu.shader_cores0.lsq.warpCoalescedAccesses::6            0      0.00%    100.00% # Number of coalesced accesses per warp instruction
system.gpu.shader_cores0.lsq.warpCoalescedAccesses::7            0      0.00%    100.00% # Number of coalesced accesses per warp instruction
system.gpu.shader_cores0.lsq.warpCoalescedAccesses::8            0      0.00%    100.00% # Number of coalesced accesses per warp instruction
system.gpu.shader_cores0.lsq.warpCoalescedAccesses::9            0      0.00%    100.00% # Number of coalesced accesses per warp instruction
system.gpu.shader_cores0.lsq.warpCoalescedAccesses::10            0      0.00%    100.00% # Number of coalesced accesses per warp instruction
system.gpu.shader_cores0.lsq.warpCoalescedAccesses::11            0      0.00%    100.00% # Number of coalesced accesses per warp instruction
system.gpu.shader_cores0.lsq.warpCoalescedAccesses::12            0      0.00%    100.00% # Number of coalesced accesses per warp instruction
system.gpu.shader_cores0.lsq.warpCoalescedAccesses::13            0      0.00%    100.00% # Number of coalesced accesses per warp instruction
system.gpu.shader_cores0.lsq.warpCoalescedAccesses::14            0      0.00%    100.00% # Number of coalesced accesses per warp instruction
system.gpu.shader_cores0.lsq.warpCoalescedAccesses::15            0      0.00%    100.00% # Number of coalesced accesses per warp instruction
system.gpu.shader_cores0.lsq.warpCoalescedAccesses::16            0      0.00%    100.00% # Number of coalesced accesses per warp instruction
system.gpu.shader_cores0.lsq.warpCoalescedAccesses::17            0      0.00%    100.00% # Number of coalesced accesses per warp instruction
system.gpu.shader_cores0.lsq.warpCoalescedAccesses::18            0      0.00%    100.00% # Number of coalesced accesses per warp instruction
system.gpu.shader_cores0.lsq.warpCoalescedAccesses::19            0      0.00%    100.00% # Number of coalesced accesses per warp instruction
system.gpu.shader_cores0.lsq.warpCoalescedAccesses::20            0      0.00%    100.00% # Number of coalesced accesses per warp instruction
system.gpu.shader_cores0.lsq.warpCoalescedAccesses::21            0      0.00%    100.00% # Number of coalesced accesses per warp instruction
system.gpu.shader_cores0.lsq.warpCoalescedAccesses::22            0      0.00%    100.00% # Number of coalesced accesses per warp instruction
system.gpu.shader_cores0.lsq.warpCoalescedAccesses::23            0      0.00%    100.00% # Number of coalesced accesses per warp instruction
system.gpu.shader_cores0.lsq.warpCoalescedAccesses::24            0      0.00%    100.00% # Number of coalesced accesses per warp instruction
system.gpu.shader_cores0.lsq.warpCoalescedAccesses::25            0      0.00%    100.00% # Number of coalesced accesses per warp instruction
system.gpu.shader_cores0.lsq.warpCoalescedAccesses::26            0      0.00%    100.00% # Number of coalesced accesses per warp instruction
system.gpu.shader_cores0.lsq.warpCoalescedAccesses::27            0      0.00%    100.00% # Number of coalesced accesses per warp instruction
system.gpu.shader_cores0.lsq.warpCoalescedAccesses::28            0      0.00%    100.00% # Number of coalesced accesses per warp instruction
system.gpu.shader_cores0.lsq.warpCoalescedAccesses::29            0      0.00%    100.00% # Number of coalesced accesses per warp instruction
system.gpu.shader_cores0.lsq.warpCoalescedAccesses::30            0      0.00%    100.00% # Number of coalesced accesses per warp instruction
system.gpu.shader_cores0.lsq.warpCoalescedAccesses::31            0      0.00%    100.00% # Number of coalesced accesses per warp instruction
system.gpu.shader_cores0.lsq.warpCoalescedAccesses::32            0      0.00%    100.00% # Number of coalesced accesses per warp instruction
system.gpu.shader_cores0.lsq.warpCoalescedAccesses::total          416                       # Number of coalesced accesses per warp instruction
system.gpu.shader_cores0.lsq.warpLatencyRead::samples          288                       # Latency in cycles for whole warp to finish the read
system.gpu.shader_cores0.lsq.warpLatencyRead::mean    68.517361                       # Latency in cycles for whole warp to finish the read
system.gpu.shader_cores0.lsq.warpLatencyRead::gmean    35.554876                       # Latency in cycles for whole warp to finish the read
system.gpu.shader_cores0.lsq.warpLatencyRead::stdev    90.802499                       # Latency in cycles for whole warp to finish the read
system.gpu.shader_cores0.lsq.warpLatencyRead::0-31          157     54.51%     54.51% # Latency in cycles for whole warp to finish the read
system.gpu.shader_cores0.lsq.warpLatencyRead::32-63           40     13.89%     68.40% # Latency in cycles for whole warp to finish the read
system.gpu.shader_cores0.lsq.warpLatencyRead::64-95           29     10.07%     78.47% # Latency in cycles for whole warp to finish the read
system.gpu.shader_cores0.lsq.warpLatencyRead::96-127           19      6.60%     85.07% # Latency in cycles for whole warp to finish the read
system.gpu.shader_cores0.lsq.warpLatencyRead::128-159            8      2.78%     87.85% # Latency in cycles for whole warp to finish the read
system.gpu.shader_cores0.lsq.warpLatencyRead::160-191            8      2.78%     90.62% # Latency in cycles for whole warp to finish the read
system.gpu.shader_cores0.lsq.warpLatencyRead::192-223            3      1.04%     91.67% # Latency in cycles for whole warp to finish the read
system.gpu.shader_cores0.lsq.warpLatencyRead::224-255            0      0.00%     91.67% # Latency in cycles for whole warp to finish the read
system.gpu.shader_cores0.lsq.warpLatencyRead::256-287            4      1.39%     93.06% # Latency in cycles for whole warp to finish the read
system.gpu.shader_cores0.lsq.warpLatencyRead::288-319            4      1.39%     94.44% # Latency in cycles for whole warp to finish the read
system.gpu.shader_cores0.lsq.warpLatencyRead::320-351            6      2.08%     96.53% # Latency in cycles for whole warp to finish the read
system.gpu.shader_cores0.lsq.warpLatencyRead::352-383           10      3.47%    100.00% # Latency in cycles for whole warp to finish the read
system.gpu.shader_cores0.lsq.warpLatencyRead::384-415            0      0.00%    100.00% # Latency in cycles for whole warp to finish the read
system.gpu.shader_cores0.lsq.warpLatencyRead::416-447            0      0.00%    100.00% # Latency in cycles for whole warp to finish the read
[...]
system.ruby.L1Cache_Controller.Fwd_GETX  |          20     10.53%     10.53% |          37     19.47%     30.00% |          48     25.26%     55.26% |          38     20.00%     75.26% |          47     24.74%    100.00% |           0      0.00%    100.00% |           0      0.00%    100.00%
system.ruby.L1Cache_Controller.Fwd_GETX::total          190                      
system.ruby.L1Cache_Controller.Fwd_GETS  |         187     45.39%     45.39% |          50     12.14%     57.52% |          51     12.38%     69.90% |          46     11.17%     81.07% |          53     12.86%     93.93% |           0      0.00%     93.93% |          25      6.07%    100.00%
system.ruby.L1Cache_Controller.Fwd_GETS::total          412                      
system.ruby.L1Cache_Controller.Data      |           4      3.85%      3.85% |           0      0.00%      3.85% |           0      0.00%      3.85% |           0      0.00%      3.85% |           0      0.00%      3.85% |           0      0.00%      3.85% |         100     96.15%    100.00%
system.ruby.L1Cache_Controller.Data::total          104                      
system.ruby.L1Cache_Controller.Data_Exclusive |         633     53.92%     53.92% |          94      8.01%     61.93% |         104      8.86%     70.78% |         104      8.86%     79.64% |         103      8.77%     88.42% |           0      0.00%     88.42% |         136     11.58%    100.00%
system.ruby.L1Cache_Controller.Data_Exclusive::total         1174                      
system.ruby.L1Cache_Controller.DataS_fromL1 |          12      2.91%      2.91% |          18      4.37%      7.28% |          21      5.10%     12.38% |           8      1.94%     14.32% |          21      5.10%     19.42% |           0      0.00%     19.42% |         332     80.58%    100.00%
system.ruby.L1Cache_Controller.DataS_fromL1::total          412                      
system.ruby.L1Cache_Controller.Data_all_Acks |        6357     90.34%     90.34% |          17      0.24%     90.58% |          29      0.41%     90.99% |          21      0.30%     91.29% |          28      0.40%     91.69% |           0      0.00%     91.69% |         585      8.31%    100.00%
system.ruby.L1Cache_Controller.Data_all_Acks::total         7037                      
system.ruby.L1Cache_Controller.Ack       |          18     22.78%     22.78% |          22     27.85%     50.63% |          13     16.46%     67.09% |           8     10.13%     77.22% |          16     20.25%     97.47% |           0      0.00%     97.47% |           2      2.53%    100.00%
system.ruby.L1Cache_Controller.Ack::total           79                      
system.ruby.L1Cache_Controller.Ack_all   |          13      7.56%      7.56% |          22     12.79%     20.35% |          13      7.56%     27.91% |           8      4.65%     32.56% |          16      9.30%     41.86% |           0      0.00%     41.86% |         100     58.14%    100.00%
system.ruby.L1Cache_Controller.Ack_all::total          172                      
system.ruby.L1Cache_Controller.WB_Ack    |         822     54.73%     54.73% |           0      0.00%     54.73% |           0      0.00%     54.73% |           0      0.00%     54.73% |           0      0.00%     54.73% |           0      0.00%     54.73% |         680     45.27%    100.00%
system.ruby.L1Cache_Controller.WB_Ack::total         1502                      
system.ruby.L1Cache_Controller.NP.Load   |         624     41.03%     41.03% |          77      5.06%     46.09% |          83      5.46%     51.55% |          77      5.06%     56.61% |          83      5.46%     62.06% |           0      0.00%     62.06% |         577     37.94%    100.00%
system.ruby.L1Cache_Controller.NP.Load::total         1521                      
system.ruby.L1Cache_Controller.NP.Ifetch |        5530     99.12%     99.12% |          12      0.22%     99.34% |          13      0.23%     99.57% |          12      0.22%     99.78% |          12      0.22%    100.00% |           0      0.00%    100.00% |           0      0.00%    100.00%
system.ruby.L1Cache_Controller.NP.Ifetch::total         5579                      
system.ruby.L1Cache_Controller.NP.Store  |         824     58.36%     58.36% |           2      0.14%     58.50% |           4      0.28%     58.78% |           2      0.14%     58.92% |           4      0.28%     59.21% |           0      0.00%     59.21% |         576     40.79%    100.00%
system.ruby.L1Cache_Controller.NP.Store::total         1412                      
system.ruby.L1Cache_Controller.NP.Inv    |          14     60.87%     60.87% |           0      0.00%     60.87% |           0      0.00%     60.87% |           0      0.00%     60.87% |           0      0.00%     60.87% |           0      0.00%     60.87% |           9     39.13%    100.00%
system.ruby.L1Cache_Controller.NP.Inv::total           23                      
system.ruby.L1Cache_Controller.I.Load    |          24     13.19%     13.19% |          36     19.78%     32.97% |          42     23.08%     56.04% |          38     20.88%     76.92% |          42     23.08%    100.00% |           0      0.00%    100.00% |           0      0.00%    100.00%
system.ruby.L1Cache_Controller.I.Load::total          182                      
system.ruby.L1Cache_Controller.I.Store   |           4     12.12%     12.12% |           2      6.06%     18.18% |          12     36.36%     54.55% |           4     12.12%     66.67% |          11     33.33%    100.00% |           0      0.00%    100.00% |           0      0.00%    100.00%
system.ruby.L1Cache_Controller.I.Store::total           33                      
system.ruby.L1Cache_Controller.I.L1_Replacement |          14     46.67%     46.67% |           0      0.00%     46.67% |           0      0.00%     46.67% |           0      0.00%     46.67% |           0      0.00%     46.67% |           0      0.00%     46.67% |          16     53.33%    100.00%
system.ruby.L1Cache_Controller.I.L1_Replacement::total           30                      
system.ruby.L1Cache_Controller.S.Load    |         545     48.53%     48.53% |         124     11.04%     59.57% |         156     13.89%     73.46% |         138     12.29%     85.75% |         160     14.25%    100.00% |           0      0.00%    100.00% |           0      0.00%    100.00%
system.ruby.L1Cache_Controller.S.Load::total         1123                      
system.ruby.L1Cache_Controller.S.Ifetch  |     6659581    100.00%    100.00% |           0      0.00%    100.00% |           0      0.00%    100.00% |           0      0.00%    100.00% |           0      0.00%    100.00% |           0      0.00%    100.00% |           0      0.00%    100.00%
system.ruby.L1Cache_Controller.S.Ifetch::total      6659581                      
system.ruby.L1Cache_Controller.S.Store   |           9     13.24%     13.24% |          22     32.35%     45.59% |          13     19.12%     64.71% |           8     11.76%     76.47% |          16     23.53%    100.00% |           0      0.00%    100.00% |           0      0.00%    100.00%
system.ruby.L1Cache_Controller.S.Store::total           68                      
system.ruby.L1Cache_Controller.S.Inv     |          88     55.00%     55.00% |           9      5.62%     60.63% |          18     11.25%     71.88% |           9      5.62%     77.50% |          19     11.88%     89.38% |           0      0.00%     89.38% |          17     10.62%    100.00%
system.ruby.L1Cache_Controller.S.Inv::total          160                      
system.ruby.L1Cache_Controller.S.L1_Replacement |        5381     92.30%     92.30% |           0      0.00%     92.30% |           0      0.00%     92.30% |           0      0.00%     92.30% |           0      0.00%     92.30% |           0      0.00%     92.30% |         449      7.70%    100.00%
system.ruby.L1Cache_Controller.S.L1_Replacement::total         5830                      
system.ruby.L1Cache_Controller.E.Load    |      135294     99.57%     99.57% |         185      0.14%     99.70% |         129      0.09%     99.80% |         152      0.11%     99.91% |         123      0.09%    100.00% |           0      0.00%    100.00% |           0      0.00%    100.00%
system.ruby.L1Cache_Controller.E.Load::total       135883                      
system.ruby.L1Cache_Controller.E.Store   |         309     46.05%     46.05% |          84     12.52%     58.57% |          92     13.71%     72.28% |          96     14.31%     86.59% |          90     13.41%    100.00% |           0      0.00%    100.00% |           0      0.00%    100.00%
system.ruby.L1Cache_Controller.E.Store::total          671                      
system.ruby.L1Cache_Controller.E.L1_Replacement |         237     63.54%     63.54% |           0      0.00%     63.54% |           0      0.00%     63.54% |           0      0.00%     63.54% |           0      0.00%     63.54% |           0      0.00%     63.54% |         136     36.46%    100.00%
system.ruby.L1Cache_Controller.E.L1_Replacement::total          373                      
system.ruby.L1Cache_Controller.E.Fwd_GETX |          12    100.00%    100.00% |           0      0.00%    100.00% |           0      0.00%    100.00% |           0      0.00%    100.00% |           0      0.00%    100.00% |           0      0.00%    100.00% |           0      0.00%    100.00%
system.ruby.L1Cache_Controller.E.Fwd_GETX::total           12                      
system.ruby.L1Cache_Controller.E.Fwd_GETS |           3      6.52%      6.52% |          10     21.74%     28.26% |          12     26.09%     54.35% |           8     17.39%     71.74% |          13     28.26%    100.00% |           0      0.00%    100.00% |           0      0.00%    100.00%
system.ruby.L1Cache_Controller.E.Fwd_GETS::total           46                      
system.ruby.L1Cache_Controller.M.Load    |     1103973    100.00%    100.00% |           0      0.00%    100.00% |          17      0.00%    100.00% |          17      0.00%    100.00% |          14      0.00%    100.00% |           0      0.00%    100.00% |           0      0.00%    100.00%
system.ruby.L1Cache_Controller.M.Load::total      1104021                      
system.ruby.L1Cache_Controller.M.Store   |      844403     99.91%     99.91% |         204      0.02%     99.93% |         195      0.02%     99.95% |         204      0.02%     99.98% |         193      0.02%    100.00% |           0      0.00%    100.00% |           0      0.00%    100.00%
system.ruby.L1Cache_Controller.M.Store::total       845199                      
system.ruby.L1Cache_Controller.M.L1_Replacement |         585     51.82%     51.82% |           0      0.00%     51.82% |           0      0.00%     51.82% |           0      0.00%     51.82% |           0      0.00%     51.82% |           0      0.00%     51.82% |         544     48.18%    100.00%
system.ruby.L1Cache_Controller.M.L1_Replacement::total         1129                      
system.ruby.L1Cache_Controller.M.Fwd_GETX |           8      4.49%      4.49% |          37     20.79%     25.28% |          48     26.97%     52.25% |          38     21.35%     73.60% |          47     26.40%    100.00% |           0      0.00%    100.00% |           0      0.00%    100.00%
system.ruby.L1Cache_Controller.M.Fwd_GETX::total          178                      
system.ruby.L1Cache_Controller.M.Fwd_GETS |         184     50.27%     50.27% |          40     10.93%     61.20% |          39     10.66%     71.86% |          38     10.38%     82.24% |          40     10.93%     93.17% |           0      0.00%     93.17% |          25      6.83%    100.00%
system.ruby.L1Cache_Controller.M.Fwd_GETS::total          366                      
system.ruby.L1Cache_Controller.IS.L1_Replacement |           0      0.00%      0.00% |           0      0.00%      0.00% |           0      0.00%      0.00% |           0      0.00%      0.00% |           0      0.00%      0.00% |           0      0.00%      0.00% |        6139    100.00%    100.00%
system.ruby.L1Cache_Controller.IS.L1_Replacement::total         6139                      
system.ruby.L1Cache_Controller.IS.Data_Exclusive |         633     53.92%     53.92% |          94      8.01%     61.93% |         104      8.86%     70.78% |         104      8.86%     79.64% |         103      8.77%     88.42% |           0      0.00%     88.42% |         136     11.58%    100.00%
system.ruby.L1Cache_Controller.IS.Data_Exclusive::total         1174                      
system.ruby.L1Cache_Controller.IS.DataS_fromL1 |          12      2.91%      2.91% |          18      4.37%      7.28% |          21      5.10%     12.38% |           8      1.94%     14.32% |          21      5.10%     19.42% |           0      0.00%     19.42% |         332     80.58%    100.00%
system.ruby.L1Cache_Controller.IS.DataS_fromL1::total          412                      
system.ruby.L1Cache_Controller.IS.Data_all_Acks |        5533     97.14%     97.14% |          13      0.23%     97.37% |          13      0.23%     97.59% |          15      0.26%     97.86% |          13      0.23%     98.09% |           0      0.00%     98.09% |         109      1.91%    100.00%
system.ruby.L1Cache_Controller.IS.Data_all_Acks::total         5696                      
system.ruby.L1Cache_Controller.IM.L1_Replacement |           0      0.00%      0.00% |           0      0.00%      0.00% |           0      0.00%      0.00% |           0      0.00%      0.00% |           0      0.00%      0.00% |           0      0.00%      0.00% |        5408    100.00%    100.00%
system.ruby.L1Cache_Controller.IM.L1_Replacement::total         5408                      
system.ruby.L1Cache_Controller.IM.Data   |           4      3.85%      3.85% |           0      0.00%      3.85% |           0      0.00%      3.85% |           0      0.00%      3.85% |           0      0.00%      3.85% |           0      0.00%      3.85% |         100     96.15%    100.00%
system.ruby.L1Cache_Controller.IM.Data::total          104                      
system.ruby.L1Cache_Controller.IM.Data_all_Acks |         824     61.45%     61.45% |           4      0.30%     61.74% |          16      1.19%     62.94% |           6      0.45%     63.39% |          15      1.12%     64.50% |           0      0.00%     64.50% |         476     35.50%    100.00%
system.ruby.L1Cache_Controller.IM.Data_all_Acks::total         1341                      
system.ruby.L1Cache_Controller.IM.Ack    |           0      0.00%      0.00% |           0      0.00%      0.00% |           0      0.00%      0.00% |           0      0.00%      0.00% |           0      0.00%      0.00% |           0      0.00%      0.00% |           2    100.00%    100.00%
system.ruby.L1Cache_Controller.IM.Ack::total            2                      
system.ruby.L1Cache_Controller.SM.L1_Replacement |           0      0.00%      0.00% |           0      0.00%      0.00% |           0      0.00%      0.00% |           0      0.00%      0.00% |           0      0.00%      0.00% |           0      0.00%      0.00% |         145    100.00%    100.00%
system.ruby.L1Cache_Controller.SM.L1_Replacement::total          145                      
system.ruby.L1Cache_Controller.SM.Ack    |          18     23.38%     23.38% |          22     28.57%     51.95% |          13     16.88%     68.83% |           8     10.39%     79.22% |          16     20.78%    100.00% |           0      0.00%    100.00% |           0      0.00%    100.00%
system.ruby.L1Cache_Controller.SM.Ack::total           77                      
system.ruby.L1Cache_Controller.SM.Ack_all |          13      7.56%      7.56% |          22     12.79%     20.35% |          13      7.56%     27.91% |           8      4.65%     32.56% |          16      9.30%     41.86% |           0      0.00%     41.86% |         100     58.14%    100.00%
system.ruby.L1Cache_Controller.SM.Ack_all::total          172                      
system.ruby.L1Cache_Controller.M_I.Ifetch |           2    100.00%    100.00% |           0      0.00%    100.00% |           0      0.00%    100.00% |           0      0.00%    100.00% |           0      0.00%    100.00% |           0      0.00%    100.00% |           0      0.00%    100.00%
system.ruby.L1Cache_Controller.M_I.Ifetch::total            2                      
system.ruby.L1Cache_Controller.M_I.WB_Ack |         822     54.73%     54.73% |           0      0.00%     54.73% |           0      0.00%     54.73% |           0      0.00%     54.73% |           0      0.00%     54.73% |           0      0.00%     54.73% |         680     45.27%    100.00%
system.ruby.L1Cache_Controller.M_I.WB_Ack::total         1502                      
system.ruby.L2Cache_Controller.L1_GET_INSTR         5579      0.00%      0.00%
system.ruby.L2Cache_Controller.L1_GETS           1715      0.00%      0.00%
system.ruby.L2Cache_Controller.L1_GETX           1445      0.00%      0.00%
system.ruby.L2Cache_Controller.L1_UPGRADE           68      0.00%      0.00%
system.ruby.L2Cache_Controller.L1_PUTX           1502      0.00%      0.00%
system.ruby.L2Cache_Controller.Mem_Data          1676      0.00%      0.00%
system.ruby.L2Cache_Controller.WB_Data            366      0.00%      0.00%
system.ruby.L2Cache_Controller.WB_Data_clean           46      0.00%      0.00%
system.ruby.L2Cache_Controller.Unblock            412      0.00%      0.00%
system.ruby.L2Cache_Controller.Exclusive_Unblock         2687      0.00%      0.00%
system.ruby.L2Cache_Controller.NP.L1_GET_INSTR          472      0.00%      0.00%
system.ruby.L2Cache_Controller.NP.L1_GETS          121      0.00%      0.00%
system.ruby.L2Cache_Controller.NP.L1_GETX         1083      0.00%      0.00%
system.ruby.L2Cache_Controller.SS.L1_GET_INSTR         5083      0.00%      0.00%
system.ruby.L2Cache_Controller.SS.L1_GETS          117      0.00%      0.00%
system.ruby.L2Cache_Controller.SS.L1_GETX          106      0.00%      0.00%
system.ruby.L2Cache_Controller.SS.L1_UPGRADE           68      0.00%      0.00%
system.ruby.L2Cache_Controller.M.L1_GET_INSTR            3      0.00%      0.00%
system.ruby.L2Cache_Controller.M.L1_GETS         1053      0.00%      0.00%
system.ruby.L2Cache_Controller.M.L1_GETX           66      0.00%      0.00%
system.ruby.L2Cache_Controller.MT.L1_GETS          412      0.00%      0.00%
system.ruby.L2Cache_Controller.MT.L1_GETX          190      0.00%      0.00%
system.ruby.L2Cache_Controller.MT.L1_PUTX         1502      0.00%      0.00%
system.ruby.L2Cache_Controller.ISS.Mem_Data          121      0.00%      0.00%
system.ruby.L2Cache_Controller.IS.L1_GET_INSTR           21      0.00%      0.00%
system.ruby.L2Cache_Controller.IS.Mem_Data          472      0.00%      0.00%
system.ruby.L2Cache_Controller.IM.Mem_Data         1083      0.00%      0.00%
system.ruby.L2Cache_Controller.SS_MB.Exclusive_Unblock          174      0.00%      0.00%
system.ruby.L2Cache_Controller.MT_MB.L1_GETS           10      0.00%      0.00%
system.ruby.L2Cache_Controller.MT_MB.Exclusive_Unblock         2513      0.00%      0.00%
system.ruby.L2Cache_Controller.MT_IIB.L1_GETS            2      0.00%      0.00%
system.ruby.L2Cache_Controller.MT_IIB.WB_Data          101      0.00%      0.00%
system.ruby.L2Cache_Controller.MT_IIB.WB_Data_clean            6      0.00%      0.00%
system.ruby.L2Cache_Controller.MT_IIB.Unblock          305      0.00%      0.00%
system.ruby.L2Cache_Controller.MT_IB.WB_Data          265      0.00%      0.00%
system.ruby.L2Cache_Controller.MT_IB.WB_Data_clean           40      0.00%      0.00%
system.ruby.L2Cache_Controller.MT_SB.Unblock          107      0.00%      0.00%
system.ruby.Directory_Controller.Fetch           1676      0.00%      0.00%
system.ruby.Directory_Controller.Memory_Data         1676      0.00%      0.00%
system.ruby.Directory_Controller.I.Fetch         1676      0.00%      0.00%
system.ruby.Directory_Controller.IM.Memory_Data         1676      0.00%      0.00%

---------- End Simulation Statistics   ----------
