
---------- Begin Simulation Statistics ----------
sim_seconds                                  0.017679                       # Number of seconds simulated
sim_ticks                                 17678976000                       # Number of ticks simulated
final_tick                                17678976000                       # Number of ticks from beginning of simulation (restored from checkpoints and never reset)
sim_freq                                 1000000000000                       # Frequency of simulated ticks
host_inst_rate                                 277317                       # Simulator instruction rate (inst/s)
host_op_rate                                   529794                       # Simulator op (including micro ops) rate (op/s)
host_tick_rate                              988375112                       # Simulator tick rate (ticks/s)
host_mem_usage                                2418288                       # Number of bytes of host memory used
host_seconds                                    17.89                       # Real time elapsed on the host
sim_insts                                     4960342                       # Number of instructions simulated
sim_ops                                       9476372                       # Number of ops (including micro ops) simulated
system.voltage_domain.voltage                       1                       # Voltage in Volts
system.clk_domain.clock                          1000                       # Clock period in ticks
system.mem_ctrls.bytes_read::gpu.shader_cores0.data        35072                       # Number of bytes read from this memory
system.mem_ctrls.bytes_read::gpu.shader_cores0.inst          288                       # Number of bytes read from this memory
system.mem_ctrls.bytes_read::gpu.shader_cores1.data        35456                       # Number of bytes read from this memory
system.mem_ctrls.bytes_read::gpu.shader_cores1.inst          312                       # Number of bytes read from this memory
system.mem_ctrls.bytes_read::gpu.shader_cores2.data        35072                       # Number of bytes read from this memory
system.mem_ctrls.bytes_read::gpu.shader_cores2.inst          288                       # Number of bytes read from this memory
system.mem_ctrls.bytes_read::gpu.shader_cores3.data        34816                       # Number of bytes read from this memory
system.mem_ctrls.bytes_read::gpu.shader_cores3.inst          288                       # Number of bytes read from this memory
system.mem_ctrls.bytes_read::gpu.ce             73052                       # Number of bytes read from this memory
system.mem_ctrls.bytes_read::cpu.inst        53320888                       # Number of bytes read from this memory
system.mem_ctrls.bytes_read::cpu.data         7972111                       # Number of bytes read from this memory
system.mem_ctrls.bytes_read::total           61507643                       # Number of bytes read from this memory
system.mem_ctrls.bytes_inst_read::gpu.shader_cores0.inst          288                       # Number of instructions bytes read from this memory
system.mem_ctrls.bytes_inst_read::gpu.shader_cores1.inst          312                       # Number of instructions bytes read from this memory
system.mem_ctrls.bytes_inst_read::gpu.shader_cores2.inst          288                       # Number of instructions bytes read from this memory
system.mem_ctrls.bytes_inst_read::gpu.shader_cores3.inst          288                       # Number of instructions bytes read from this memory
system.mem_ctrls.bytes_inst_read::cpu.inst     53320888                       # Number of instructions bytes read from this memory
system.mem_ctrls.bytes_inst_read::total      53322064                       # Number of instructions bytes read from this memory
system.mem_ctrls.bytes_written::gpu.shader_cores0.data        12544                       # Number of bytes written to this memory
system.mem_ctrls.bytes_written::gpu.shader_cores1.data        12672                       # Number of bytes written to this memory
system.mem_ctrls.bytes_written::gpu.shader_cores2.data        12544                       # Number of bytes written to this memory
system.mem_ctrls.bytes_written::gpu.shader_cores3.data        12544                       # Number of bytes written to this memory
system.mem_ctrls.bytes_written::gpu.ce          73052                       # Number of bytes written to this memory
system.mem_ctrls.bytes_written::cpu.data      4969927                       # Number of bytes written to this memory
system.mem_ctrls.bytes_written::total         5093283                       # Number of bytes written to this memory
system.mem_ctrls.num_reads::gpu.shader_cores0.data          428                       # Number of read requests responded to by this memory
system.mem_ctrls.num_reads::gpu.shader_cores0.inst           12                       # Number of read requests responded to by this memory
system.mem_ctrls.num_reads::gpu.shader_cores1.data          421                       # Number of read requests responded to by this memory
system.mem_ctrls.num_reads::gpu.shader_cores1.inst           13                       # Number of read requests responded to by this memory
system.mem_ctrls.num_reads::gpu.shader_cores2.data          428                       # Number of read requests responded to by this memory
system.mem_ctrls.num_reads::gpu.shader_cores2.inst           12                       # Number of read requests responded to by this memory
system.mem_ctrls.num_reads::gpu.shader_cores3.data          416                       # Number of read requests responded to by this memory
system.mem_ctrls.num_reads::gpu.shader_cores3.inst           12                       # Number of read requests responded to by this memory
system.mem_ctrls.num_reads::gpu.ce                577                       # Number of read requests responded to by this memory
system.mem_ctrls.num_reads::cpu.inst          6665111                       # Number of read requests responded to by this memory
system.mem_ctrls.num_reads::cpu.data          1297860                       # Number of read requests responded to by this memory
system.mem_ctrls.num_reads::total             7965290                       # Number of read requests responded to by this memory
system.mem_ctrls.num_writes::gpu.shader_cores0.data          308                       # Number of write requests responded to by this memory
system.mem_ctrls.num_writes::gpu.shader_cores1.data          322                       # Number of write requests responded to by this memory
system.mem_ctrls.num_writes::gpu.shader_cores2.data          308                       # Number of write requests responded to by this memory
system.mem_ctrls.num_writes::gpu.shader_cores3.data          320                       # Number of write requests responded to by this memory
system.mem_ctrls.num_writes::gpu.ce               576                       # Number of write requests responded to by this memory
system.mem_ctrls.num_writes::cpu.data          788149                       # Number of write requests responded to by this memory
system.mem_ctrls.num_writes::total             789983                       # Number of write requests responded to by this memory
system.mem_ctrls.bw_read::gpu.shader_cores0.data      1983825                       # Total read bandwidth from this memory (bytes/s)
system.mem_ctrls.bw_read::gpu.shader_cores0.inst        16291                       # Total read bandwidth from this memory (bytes/s)
system.mem_ctrls.bw_read::gpu.shader_cores1.data      2005546                       # Total read bandwidth from this memory (bytes/s)
system.mem_ctrls.bw_read::gpu.shader_cores1.inst        17648                       # Total read bandwidth from this memory (bytes/s)
system.mem_ctrls.bw_read::gpu.shader_cores2.data      1983825                       # Total read bandwidth from this memory (bytes/s)
system.mem_ctrls.bw_read::gpu.shader_cores2.inst        16291                       # Total read bandwidth from this memory (bytes/s)
system.mem_ctrls.bw_read::gpu.shader_cores3.data      1969345                       # Total read bandwidth from this memory (bytes/s)
system.mem_ctrls.bw_read::gpu.shader_cores3.inst        16291                       # Total read bandwidth from this memory (bytes/s)
system.mem_ctrls.bw_read::gpu.ce              4132140                       # Total read bandwidth from this memory (bytes/s)
system.mem_ctrls.bw_read::cpu.inst         3016062016                       # Total read bandwidth from this memory (bytes/s)
system.mem_ctrls.bw_read::cpu.data          450937373                       # Total read bandwidth from this memory (bytes/s)
system.mem_ctrls.bw_read::total            3479140590                       # Total read bandwidth from this memory (bytes/s)
system.mem_ctrls.bw_inst_read::gpu.shader_cores0.inst        16291                       # Instruction read bandwidth from this memory (bytes/s)
system.mem_ctrls.bw_inst_read::gpu.shader_cores1.inst        17648                       # Instruction read bandwidth from this memory (bytes/s)
system.mem_ctrls.bw_inst_read::gpu.shader_cores2.inst        16291                       # Instruction read bandwidth from this memory (bytes/s)
system.mem_ctrls.bw_inst_read::gpu.shader_cores3.inst        16291                       # Instruction read bandwidth from this memory (bytes/s)
system.mem_ctrls.bw_inst_read::cpu.inst    3016062016                       # Instruction read bandwidth from this memory (bytes/s)
system.mem_ctrls.bw_inst_read::total       3016128536                       # Instruction read bandwidth from this memory (bytes/s)
system.mem_ctrls.bw_write::gpu.shader_cores0.data       709543                       # Write bandwidth from this memory (bytes/s)
system.mem_ctrls.bw_write::gpu.shader_cores1.data       716784                       # Write bandwidth from this memory (bytes/s)
system.mem_ctrls.bw_write::gpu.shader_cores2.data       709543                       # Write bandwidth from this memory (bytes/s)
system.mem_ctrls.bw_write::gpu.shader_cores3.data       709543                       # Write bandwidth from this memory (bytes/s)
system.mem_ctrls.bw_write::gpu.ce             4132140                       # Write bandwidth from this memory (bytes/s)
system.mem_ctrls.bw_write::cpu.data         281120750                       # Write bandwidth from this memory (bytes/s)
system.mem_ctrls.bw_write::total            288098304                       # Write bandwidth from this memory (bytes/s)
system.mem_ctrls.bw_total::gpu.shader_cores0.data      2693369                       # Total bandwidth to/from this memory (bytes/s)
system.mem_ctrls.bw_total::gpu.shader_cores0.inst        16291                       # Total bandwidth to/from this memory (bytes/s)
system.mem_ctrls.bw_total::gpu.shader_cores1.data      2722330                       # Total bandwidth to/from this memory (bytes/s)
system.mem_ctrls.bw_total::gpu.shader_cores1.inst        17648                       # Total bandwidth to/from this memory (bytes/s)
system.mem_ctrls.bw_total::gpu.shader_cores2.data      2693369                       # Total bandwidth to/from this memory (bytes/s)
system.mem_ctrls.bw_total::gpu.shader_cores2.inst        16291                       # Total bandwidth to/from this memory (bytes/s)
system.mem_ctrls.bw_total::gpu.shader_cores3.data      2678888                       # Total bandwidth to/from this memory (bytes/s)
system.mem_ctrls.bw_total::gpu.shader_cores3.inst        16291                       # Total bandwidth to/from this memory (bytes/s)
system.mem_ctrls.bw_total::gpu.ce             8264280                       # Total bandwidth to/from this memory (bytes/s)
system.mem_ctrls.bw_total::cpu.inst        3016062016                       # Total bandwidth to/from this memory (bytes/s)
system.mem_ctrls.bw_total::cpu.data         732058124                       # Total bandwidth to/from this memory (bytes/s)
system.mem_ctrls.bw_total::total           3767238894                       # Total bandwidth to/from this memory (bytes/s)
system.ruby_clk_domain.clock                      500                       # Clock period in ticks
system.ruby.delayHist::bucket_size                256                       # delay histogram for all message
system.ruby.delayHist::max_bucket                2559                       # delay histogram for all message
system.ruby.delayHist::samples                  26985                       # delay histogram for all message
system.ruby.delayHist::mean                 25.055698                       # delay histogram for all message
system.ruby.delayHist::stdev               168.663593                       # delay histogram for all message
system.ruby.delayHist                    |       26544     98.37%     98.37% |          66      0.24%     98.61% |         119      0.44%     99.05% |          42      0.16%     99.21% |          38      0.14%     99.35% |          23      0.09%     99.43% |          27      0.10%     99.53% |          81      0.30%     99.83% |          44      0.16%    100.00% |           1      0.00%    100.00% # delay histogram for all message
system.ruby.delayHist::total                    26985                       # delay histogram for all message
system.ruby.outstanding_req_hist::bucket_size            8                      
system.ruby.outstanding_req_hist::max_bucket           79                      
system.ruby.outstanding_req_hist::samples      8755274                      
system.ruby.outstanding_req_hist::mean       1.008794                      
system.ruby.outstanding_req_hist::gmean      1.000852                      
system.ruby.outstanding_req_hist::stdev      0.664348                      
system.ruby.outstanding_req_hist         |     8753388     99.98%     99.98% |         365      0.00%     99.98% |         152      0.00%     99.98% |         205      0.00%     99.99% |         263      0.00%     99.99% |          51      0.00%     99.99% |          72      0.00%     99.99% |         111      0.00%     99.99% |         667      0.01%    100.00% |           0      0.00%    100.00%
system.ruby.outstanding_req_hist::total       8755274                      
system.ruby.latency_hist::bucket_size             256                      
system.ruby.latency_hist::max_bucket             2559                      
system.ruby.latency_hist::samples             8755273                      
system.ruby.latency_hist::mean               3.163493                      
system.ruby.latency_hist::gmean              3.007625                      
system.ruby.latency_hist::stdev             11.824383                      
system.ruby.latency_hist                 |     8754039     99.99%     99.99% |         284      0.00%     99.99% |         355      0.00%     99.99% |         249      0.00%    100.00% |         134      0.00%    100.00% |          68      0.00%    100.00% |          79      0.00%    100.00% |          36      0.00%    100.00% |          22      0.00%    100.00% |           7      0.00%    100.00%
system.ruby.latency_hist::total               8755273                      
system.ruby.hit_latency_hist::bucket_size            1                      
system.ruby.hit_latency_hist::max_bucket            9                      
system.ruby.hit_latency_hist::samples         8746424                      
system.ruby.hit_latency_hist::mean           2.999470                      
system.ruby.hit_latency_hist::gmean          2.999126                      
system.ruby.hit_latency_hist::stdev          0.032562                      
system.ruby.hit_latency_hist             |           0      0.00%      0.00% |        2319      0.03%      0.03% |           0      0.00%      0.03% |     8744105     99.97%    100.00% |           0      0.00%    100.00% |           0      0.00%    100.00% |           0      0.00%    100.00% |           0      0.00%    100.00% |           0      0.00%    100.00% |           0      0.00%    100.00%
system.ruby.hit_latency_hist::total           8746424                      
system.ruby.miss_latency_hist::bucket_size          256                      
system.ruby.miss_latency_hist::max_bucket         2559                      
system.ruby.miss_latency_hist::samples           8849                      
system.ruby.miss_latency_hist::mean        165.285004                      
system.ruby.miss_latency_hist::gmean        49.301090                      
system.ruby.miss_latency_hist::stdev       334.718901                      
system.ruby.miss_latency_hist            |        7615     86.05%     86.05% |         284      3.21%     89.26% |         355      4.01%     93.28% |         249      2.81%     96.09% |         134      1.51%     97.60% |          68      0.77%     98.37% |          79      0.89%     99.27% |          36      0.41%     99.67% |          22      0.25%     99.92% |           7      0.08%    100.00%
system.ruby.miss_latency_hist::total             8849                      
system.ruby.l1_cntrl_ce.L1Dcache.demand_hits            0                       # Number of cache demand hits
system.ruby.l1_cntrl_ce.L1Dcache.demand_misses         1153                       # Number of cache demand misses
system.ruby.l1_cntrl_ce.L1Dcache.demand_accesses         1153                       # Number of cache demand accesses
system.ruby.l1_cntrl_ce.L1Icache.demand_hits            0                       # Number of cache demand hits
system.ruby.l1_cntrl_ce.L1Icache.demand_misses            0                       # Number of cache demand misses
system.ruby.l1_cntrl_ce.L1Icache.demand_accesses            0                       # Number of cache demand accesses
system.ruby.l1_cntrl_ce.prefetcher.miss_observed            0                       # number of misses observed
system.ruby.l1_cntrl_ce.prefetcher.allocated_streams            0                       # number of streams allocated for prefetching
system.ruby.l1_cntrl_ce.prefetcher.prefetches_requested            0                       # number of prefetch requests made
system.ruby.l1_cntrl_ce.prefetcher.prefetches_accepted            0                       # number of prefetch requests accepted
system.ruby.l1_cntrl_ce.prefetcher.dropped_prefetches            0                       # number of prefetch requests dropped
system.ruby.l1_cntrl_ce.prefetcher.hits             0                       # number of prefetched blocks accessed
system.ruby.l1_cntrl_ce.prefetcher.partial_hits            0                       # number of misses observed for a block being prefetched
system.ruby.l1_cntrl_ce.prefetcher.pages_crossed            0                       # number of prefetches across pages
system.ruby.l1_cntrl_ce.prefetcher.misses_on_prefetched_blocks            0                       # number of misses for blocks that were prefetched, yet missed
system.ruby.l1_cntrl_ce.fully_busy_cycles            2                       # cycles for which number of transistions == max transitions
system.ruby.l1_cntrl0.L1Dcache.demand_hits      2084524                       # Number of cache demand hits
system.ruby.l1_cntrl0.L1Dcache.demand_misses         1485                       # Number of cache demand misses
system.ruby.l1_cntrl0.L1Dcache.demand_accesses      2086009                       # Number of cache demand accesses
system.ruby.l1_cntrl0.L1Icache.demand_hits      6659581                       # Number of cache demand hits
system.ruby.l1_cntrl0.L1Icache.demand_misses         5530                       # Number of cache demand misses
system.ruby.l1_cntrl0.L1Icache.demand_accesses      6665111                       # Number of cache demand accesses
system.ruby.l1_cntrl0.prefetcher.miss_observed            0                       # number of misses observed
system.ruby.l1_cntrl0.prefetcher.allocated_streams            0                       # number of streams allocated for prefetching
system.ruby.l1_cntrl0.prefetcher.prefetches_requested            0                       # number of prefetch requests made
system.ruby.l1_cntrl0.prefetcher.prefetches_accepted            0                       # number of prefetch requests accepted
system.ruby.l1_cntrl0.prefetcher.dropped_prefetches            0                       # number of prefetch requests dropped
system.ruby.l1_cntrl0.prefetcher.hits               0                       # number of prefetched blocks accessed
system.ruby.l1_cntrl0.prefetcher.partial_hits            0                       # number of misses observed for a block being prefetched
system.ruby.l1_cntrl0.prefetcher.pages_crossed            0                       # number of prefetches across pages
system.ruby.l1_cntrl0.prefetcher.misses_on_prefetched_blocks            0                       # number of misses for blocks that were prefetched, yet missed
system.ruby.network.routers0.percent_links_utilized     0.103048                      
system.ruby.network.routers0.msg_count.Control::0         7015                      
system.ruby.network.routers0.msg_count.Request_Control::0          309                      
system.ruby.network.routers0.msg_count.Response_Data::1         7400                      
system.ruby.network.routers0.msg_count.Response_Control::1          955                      
system.ruby.network.routers0.msg_count.Response_Control::2         1482                      
system.ruby.network.routers0.msg_count.Writeback_Data::0          585                      
system.ruby.network.routers0.msg_count.Writeback_Control::0          237                      
system.ruby.network.routers0.msg_bytes.Control::0        56120                      
system.ruby.network.routers0.msg_bytes.Request_Control::0         2472                      
system.ruby.network.routers0.msg_bytes.Response_Data::1      1006400                      
system.ruby.network.routers0.msg_bytes.Response_Control::1         7640                      
system.ruby.network.routers0.msg_bytes.Response_Control::2        11856                      
system.ruby.network.routers0.msg_bytes.Writeback_Data::0        79560                      
system.ruby.network.routers0.msg_bytes.Writeback_Control::0         1896                      
system.ruby.l2_cntrl0.L2cache.demand_hits         6509                       # Number of cache demand hits
system.ruby.l2_cntrl0.L2cache.demand_misses         2340                       # Number of cache demand misses
system.ruby.l2_cntrl0.L2cache.demand_accesses         8849                       # Number of cache demand accesses
system.ruby.network.routers1.percent_links_utilized     0.147870                      
system.ruby.network.routers1.msg_count.Control::0        10525                      
system.ruby.network.routers1.msg_count.Request_Control::0          826                      
system.ruby.network.routers1.msg_count.Response_Data::1        10205                      
system.ruby.network.routers1.msg_count.Response_Control::1         1584                      
system.ruby.network.routers1.msg_count.Response_Control::2         3149                      
system.ruby.network.routers1.msg_count.Writeback_Data::0         1129                      
system.ruby.network.routers1.msg_count.Writeback_Control::0          373                      
system.ruby.network.routers1.msg_bytes.Control::0        84200                      
system.ruby.network.routers1.msg_bytes.Request_Control::0         6608                      
system.ruby.network.routers1.msg_bytes.Response_Data::1      1387880                      
system.ruby.network.routers1.msg_bytes.Response_Control::1        12672                      
system.ruby.network.routers1.msg_bytes.Response_Control::2        25192                      
system.ruby.network.routers1.msg_bytes.Writeback_Data::0       153544                      
system.ruby.network.routers1.msg_bytes.Writeback_Control::0         2984                      
system.ruby.dir_cntrl0.memBuffer.clk_domain.clock         2500                       # Clock period in ticks
system.ruby.dir_cntrl0.memBuffer.memReq          1676                       # Total number of memory requests
system.ruby.dir_cntrl0.memBuffer.memRead         1676                       # Number of memory reads
system.ruby.dir_cntrl0.memBuffer.memRefresh        12679                       # Number of memory refreshes
system.ruby.dir_cntrl0.memBuffer.memWaitCycles          413                       # Delay stalled at the head of the bank queue
system.ruby.dir_cntrl0.memBuffer.memInputQ           23                       # Delay in the input queue
system.ruby.dir_cntrl0.memBuffer.totalStalls          436                       # Total number of stall cycles
system.ruby.dir_cntrl0.memBuffer.stallsPerReq     0.260143                       # Expected number of stall cycles per request
system.ruby.dir_cntrl0.memBuffer.memBankBusy          156                       # memory stalls due to busy bank
system.ruby.dir_cntrl0.memBuffer.memBusBusy          140                       # memory stalls due to busy bus
system.ruby.dir_cntrl0.memBuffer.memDataBusBusy           68                       # memory stalls due to read read turnaround
system.ruby.dir_cntrl0.memBuffer.memArbWait           49                       # memory stalls due to arbitration
system.ruby.dir_cntrl0.memBuffer.memBankCount |          49      2.92%      2.92% |          54      3.22%      6.15% |          54      3.22%      9.37% |          56      3.34%     12.71% |          51      3.04%     15.75% |          50      2.98%     18.74% |          47      2.80%     21.54% |          50      2.98%     24.52% |          50      2.98%     27.51% |          49      2.92%     30.43% |          57      3.40%     33.83% |          50      2.98%     36.81% |          47      2.80%     39.62% |          50      2.98%     42.60% |          55      3.28%     45.88% |          54      3.22%     49.11% |          60      3.58%     52.68% |          62      3.70%     56.38% |          50      2.98%     59.37% |          54      3.22%     62.59% |          42      2.51%     65.10% |          44      2.63%     67.72% |          52      3.10%     70.82% |          59      3.52%     74.34% |          61      3.64%     77.98% |          56      3.34%     81.32% |          54      3.22%     84.55% |          50      2.98%     87.53% |          48      2.86%     90.39% |          52      3.10%     93.50% |          56      3.34%     96.84% |          53      3.16%    100.00% # Number of accesses per bank
system.ruby.dir_cntrl0.memBuffer.memBankCount::total         1676                       # Number of accesses per bank
system.ruby.network.routers2.percent_links_utilized     0.021330                      
system.ruby.network.routers2.msg_count.Control::0         1676                      
system.ruby.network.routers2.msg_count.Response_Data::1         1676                      
system.ruby.network.routers2.msg_bytes.Control::0        13408                      
system.ruby.network.routers2.msg_bytes.Response_Data::1       227936                      
system.ruby.l1_cntrl_sp00.L1Dcache.demand_hits          575                       # Number of cache demand hits
system.ruby.l1_cntrl_sp00.L1Dcache.demand_misses          161                       # Number of cache demand misses
system.ruby.l1_cntrl_sp00.L1Dcache.demand_accesses          736                       # Number of cache demand accesses
system.ruby.l1_cntrl_sp00.L1Icache.demand_hits            0                       # Number of cache demand hits
system.ruby.l1_cntrl_sp00.L1Icache.demand_misses           12                       # Number of cache demand misses
system.ruby.l1_cntrl_sp00.L1Icache.demand_accesses           12                       # Number of cache demand accesses
system.ruby.l1_cntrl_sp00.prefetcher.miss_observed            0                       # number of misses observed
system.ruby.l1_cntrl_sp00.prefetcher.allocated_streams            0                       # number of streams allocated for prefetching
system.ruby.l1_cntrl_sp00.prefetcher.prefetches_requested            0                       # number of prefetch requests made
system.ruby.l1_cntrl_sp00.prefetcher.prefetches_accepted            0                       # number of prefetch requests accepted
system.ruby.l1_cntrl_sp00.prefetcher.dropped_prefetches            0                       # number of prefetch requests dropped
system.ruby.l1_cntrl_sp00.prefetcher.hits            0                       # number of prefetched blocks accessed
system.ruby.l1_cntrl_sp00.prefetcher.partial_hits            0                       # number of misses observed for a block being prefetched
system.ruby.l1_cntrl_sp00.prefetcher.pages_crossed            0                       # number of prefetches across pages
system.ruby.l1_cntrl_sp00.prefetcher.misses_on_prefetched_blocks            0                       # number of misses for blocks that were prefetched, yet missed
system.ruby.network.routers3.percent_links_utilized     0.004063                      
system.ruby.network.routers3.msg_count.Control::0          173                      
system.ruby.network.routers3.msg_count.Request_Control::0          120                      
system.ruby.network.routers3.msg_count.Response_Data::1          307                      
system.ruby.network.routers3.msg_count.Response_Control::1           76                      
system.ruby.network.routers3.msg_count.Response_Control::2          159                      
system.ruby.network.routers3.msg_bytes.Control::0         1384                      
system.ruby.network.routers3.msg_bytes.Request_Control::0          960                      
system.ruby.network.routers3.msg_bytes.Response_Data::1        41752                      
system.ruby.network.routers3.msg_bytes.Response_Control::1          608                      
system.ruby.network.routers3.msg_bytes.Response_Control::2         1272                      
system.ruby.l1_cntrl_sp01.L1Dcache.demand_hits          586                       # Number of cache demand hits
system.ruby.l1_cntrl_sp01.L1Dcache.demand_misses          157                       # Number of cache demand misses
system.ruby.l1_cntrl_sp01.L1Dcache.demand_accesses          743                       # Number of cache demand accesses
system.ruby.l1_cntrl_sp01.L1Icache.demand_hits            0                       # Number of cache demand hits
system.ruby.l1_cntrl_sp01.L1Icache.demand_misses           13                       # Number of cache demand misses
system.ruby.l1_cntrl_sp01.L1Icache.demand_accesses           13                       # Number of cache demand accesses
system.ruby.l1_cntrl_sp01.prefetcher.miss_observed            0                       # number of misses observed
system.ruby.l1_cntrl_sp01.prefetcher.allocated_streams            0                       # number of streams allocated for prefetching
system.ruby.l1_cntrl_sp01.prefetcher.prefetches_requested            0                       # number of prefetch requests made
system.ruby.l1_cntrl_sp01.prefetcher.prefetches_accepted            0                       # number of prefetch requests accepted
system.ruby.l1_cntrl_sp01.prefetcher.dropped_prefetches            0                       # number of prefetch requests dropped
system.ruby.l1_cntrl_sp01.prefetcher.hits            0                       # number of prefetched blocks accessed
system.ruby.l1_cntrl_sp01.prefetcher.partial_hits            0                       # number of misses observed for a block being prefetched
system.ruby.l1_cntrl_sp01.prefetcher.pages_crossed            0                       # number of prefetches across pages
system.ruby.l1_cntrl_sp01.prefetcher.misses_on_prefetched_blocks            0                       # number of misses for blocks that were prefetched, yet missed
system.ruby.network.routers4.percent_links_utilized     0.004144                      
system.ruby.network.routers4.msg_count.Control::0          170                      
system.ruby.network.routers4.msg_count.Request_Control::0          124                      
system.ruby.network.routers4.msg_count.Response_Data::1          316                      
system.ruby.network.routers4.msg_count.Response_Control::1           38                      
system.ruby.network.routers4.msg_count.Response_Control::2          157                      
system.ruby.network.routers4.msg_bytes.Control::0         1360                      
system.ruby.network.routers4.msg_bytes.Request_Control::0          992                      
system.ruby.network.routers4.msg_bytes.Response_Data::1        42976                      
system.ruby.network.routers4.msg_bytes.Response_Control::1          304                      
system.ruby.network.routers4.msg_bytes.Response_Control::2         1256                      
system.ruby.l1_cntrl_sp02.L1Dcache.demand_hits          584                       # Number of cache demand hits
system.ruby.l1_cntrl_sp02.L1Dcache.demand_misses          152                       # Number of cache demand misses
system.ruby.l1_cntrl_sp02.L1Dcache.demand_accesses          736                       # Number of cache demand accesses
system.ruby.l1_cntrl_sp02.L1Icache.demand_hits            0                       # Number of cache demand hits
system.ruby.l1_cntrl_sp02.L1Icache.demand_misses           12                       # Number of cache demand misses
system.ruby.l1_cntrl_sp02.L1Icache.demand_accesses           12                       # Number of cache demand accesses
system.ruby.l1_cntrl_sp02.prefetcher.miss_observed            0                       # number of misses observed
system.ruby.l1_cntrl_sp02.prefetcher.allocated_streams            0                       # number of streams allocated for prefetching
system.ruby.l1_cntrl_sp02.prefetcher.prefetches_requested            0                       # number of prefetch requests made
system.ruby.l1_cntrl_sp02.prefetcher.prefetches_accepted            0                       # number of prefetch requests accepted
system.ruby.l1_cntrl_sp02.prefetcher.dropped_prefetches            0                       # number of prefetch requests dropped
system.ruby.l1_cntrl_sp02.prefetcher.hits            0                       # number of prefetched blocks accessed
system.ruby.l1_cntrl_sp02.prefetcher.partial_hits            0                       # number of misses observed for a block being prefetched
system.ruby.l1_cntrl_sp02.prefetcher.pages_crossed            0                       # number of prefetches across pages
system.ruby.l1_cntrl_sp02.prefetcher.misses_on_prefetched_blocks            0                       # number of misses for blocks that were prefetched, yet missed
system.ruby.network.routers5.percent_links_utilized     0.003892                      
system.ruby.network.routers5.msg_count.Control::0          164                      
system.ruby.network.routers5.msg_count.Request_Control::0          114                      
system.ruby.network.routers5.msg_count.Response_Data::1          296                      
system.ruby.network.routers5.msg_count.Response_Control::1           47                      
system.ruby.network.routers5.msg_count.Response_Control::2          147                      
system.ruby.network.routers5.msg_bytes.Control::0         1312                      
system.ruby.network.routers5.msg_bytes.Request_Control::0          912                      
system.ruby.network.routers5.msg_bytes.Response_Data::1        40256                      
system.ruby.network.routers5.msg_bytes.Response_Control::1          376                      
system.ruby.network.routers5.msg_bytes.Response_Control::2         1176                      
system.ruby.l1_cntrl_sp03.L1Dcache.demand_hits          574                       # Number of cache demand hits
system.ruby.l1_cntrl_sp03.L1Dcache.demand_misses          162                       # Number of cache demand misses
system.ruby.l1_cntrl_sp03.L1Dcache.demand_accesses          736                       # Number of cache demand accesses
system.ruby.l1_cntrl_sp03.L1Icache.demand_hits            0                       # Number of cache demand hits
system.ruby.l1_cntrl_sp03.L1Icache.demand_misses           12                       # Number of cache demand misses
system.ruby.l1_cntrl_sp03.L1Icache.demand_accesses           12                       # Number of cache demand accesses
system.ruby.l1_cntrl_sp03.prefetcher.miss_observed            0                       # number of misses observed
system.ruby.l1_cntrl_sp03.prefetcher.allocated_streams            0                       # number of streams allocated for prefetching
system.ruby.l1_cntrl_sp03.prefetcher.prefetches_requested            0                       # number of prefetch requests made
system.ruby.l1_cntrl_sp03.prefetcher.prefetches_accepted            0                       # number of prefetch requests accepted
system.ruby.l1_cntrl_sp03.prefetcher.dropped_prefetches            0                       # number of prefetch requests dropped
system.ruby.l1_cntrl_sp03.prefetcher.hits            0                       # number of prefetched blocks accessed
system.ruby.l1_cntrl_sp03.prefetcher.partial_hits            0                       # number of misses observed for a block being prefetched
system.ruby.l1_cntrl_sp03.prefetcher.pages_crossed            0                       # number of prefetches across pages
system.ruby.l1_cntrl_sp03.prefetcher.misses_on_prefetched_blocks            0                       # number of misses for blocks that were prefetched, yet missed
system.ruby.network.routers6.percent_links_utilized     0.004071                      
system.ruby.network.routers6.msg_count.Control::0          174                      
system.ruby.network.routers6.msg_count.Request_Control::0          117                      
system.ruby.network.routers6.msg_count.Response_Data::1          309                      
system.ruby.network.routers6.msg_count.Response_Control::1           54                      
system.ruby.network.routers6.msg_count.Response_Control::2          160                      
system.ruby.network.routers6.msg_bytes.Control::0         1392                      
system.ruby.network.routers6.msg_bytes.Request_Control::0          936                      
system.ruby.network.routers6.msg_bytes.Response_Data::1        42024                      
system.ruby.network.routers6.msg_bytes.Response_Control::1          432                      
system.ruby.network.routers6.msg_bytes.Response_Control::2         1280                      
system.ruby.l1_pw_cntrl.L1Dcache.demand_hits            0                       # Number of cache demand hits
system.ruby.l1_pw_cntrl.L1Dcache.demand_misses            0                       # Number of cache demand misses
system.ruby.l1_pw_cntrl.L1Dcache.demand_accesses            0                       # Number of cache demand accesses
system.ruby.l1_pw_cntrl.L1Icache.demand_hits            0                       # Number of cache demand hits
system.ruby.l1_pw_cntrl.L1Icache.demand_misses            0                       # Number of cache demand misses
system.ruby.l1_pw_cntrl.L1Icache.demand_accesses            0                       # Number of cache demand accesses
system.ruby.l1_pw_cntrl.prefetcher.miss_observed            0                       # number of misses observed
system.ruby.l1_pw_cntrl.prefetcher.allocated_streams            0                       # number of streams allocated for prefetching
system.ruby.l1_pw_cntrl.prefetcher.prefetches_requested            0                       # number of prefetch requests made
system.ruby.l1_pw_cntrl.prefetcher.prefetches_accepted            0                       # number of prefetch requests accepted
system.ruby.l1_pw_cntrl.prefetcher.dropped_prefetches            0                       # number of prefetch requests dropped
system.ruby.l1_pw_cntrl.prefetcher.hits             0                       # number of prefetched blocks accessed
system.ruby.l1_pw_cntrl.prefetcher.partial_hits            0                       # number of misses observed for a block being prefetched
system.ruby.l1_pw_cntrl.prefetcher.pages_crossed            0                       # number of prefetches across pages
system.ruby.l1_pw_cntrl.prefetcher.misses_on_prefetched_blocks            0                       # number of misses for blocks that were prefetched, yet missed
system.ruby.network.routers7.percent_links_utilized            0                      
system.ruby.network.routers8.percent_links_utilized     0.023256                      
system.ruby.network.routers8.msg_count.Control::0         1153                      
system.ruby.network.routers8.msg_count.Request_Control::0           51                      
system.ruby.network.routers8.msg_count.Response_Data::1         1203                      
system.ruby.network.routers8.msg_count.Response_Control::1          808                      
system.ruby.network.routers8.msg_count.Response_Control::2         1044                      
system.ruby.network.routers8.msg_count.Writeback_Data::0          544                      
system.ruby.network.routers8.msg_count.Writeback_Control::0          136                      
system.ruby.network.routers8.msg_bytes.Control::0         9224                      
system.ruby.network.routers8.msg_bytes.Request_Control::0          408                      
system.ruby.network.routers8.msg_bytes.Response_Data::1       163608                      
system.ruby.network.routers8.msg_bytes.Response_Control::1         6464                      
system.ruby.network.routers8.msg_bytes.Response_Control::2         8352                      
system.ruby.network.routers8.msg_bytes.Writeback_Data::0        73984                      
system.ruby.network.routers8.msg_bytes.Writeback_Control::0         1088                      
system.ruby.network.routers9.percent_links_utilized     0.034666                      
system.ruby.network.routers9.msg_count.Control::0        10525                      
system.ruby.network.routers9.msg_count.Request_Control::0          835                      
system.ruby.network.routers9.msg_count.Response_Data::1        10869                      
system.ruby.network.routers9.msg_count.Response_Control::1         1781                      
system.ruby.network.routers9.msg_count.Response_Control::2         3149                      
system.ruby.network.routers9.msg_count.Writeback_Data::0         1129                      
system.ruby.network.routers9.msg_count.Writeback_Control::0          373                      
system.ruby.network.routers9.msg_bytes.Control::0        84200                      
system.ruby.network.routers9.msg_bytes.Request_Control::0         6680                      
system.ruby.network.routers9.msg_bytes.Response_Data::1      1478184                      
system.ruby.network.routers9.msg_bytes.Response_Control::1        14248                      
system.ruby.network.routers9.msg_bytes.Response_Control::2        25192                      
system.ruby.network.routers9.msg_bytes.Writeback_Data::0       153544                      
system.ruby.network.routers9.msg_bytes.Writeback_Control::0         2984                      
system.ruby.network.msg_count.Control           31575                      
system.ruby.network.msg_count.Request_Control         2496                      
system.ruby.network.msg_count.Response_Data        32581                      
system.ruby.network.msg_count.Response_Control        14790                      
system.ruby.network.msg_count.Writeback_Data         3387                      
system.ruby.network.msg_count.Writeback_Control         1119                      
system.ruby.network.msg_byte.Control           252600                      
system.ruby.network.msg_byte.Request_Control        19968                      
system.ruby.network.msg_byte.Response_Data      4431016                      
system.ruby.network.msg_byte.Response_Control       118320                      
system.ruby.network.msg_byte.Writeback_Data       460632                      
system.ruby.network.msg_byte.Writeback_Control         8952                      
system.ruby.memctrl_clk_domain.clock             1500                       # Clock period in ticks
system.cpu_voltage_domain.voltage                   1                       # Voltage in Volts
system.gpu.clk_domain.voltage_domain.voltage            1                       # Voltage in Volts
system.gpu.clk_domain.clock                      1429                       # Clock period in ticks
system.gpu.dram_wrapper.clk_domain.clock          541                       # Clock period in ticks
system.gpu.icnt_wrapper.clk_domain.clock         2858                       # Clock period in ticks
system.gpu.shader_mmu.numPagefaults                 0                       # Number of Pagefaults
system.gpu.shader_mmu.numPagewalks                168                       # Number of Pagewalks
system.gpu.shader_mmu.totalRequests               168                       # Total number of requests
system.gpu.shader_mmu.retryFailures                 0                       # Times the retry walk after a pagefault failed
system.gpu.shader_mmu.l2hits                        0                       # Hits in the shared L2
system.gpu.shader_mmu.prefetchHits                  0                       # Number of prefetch hits
system.gpu.shader_mmu.numPrefetches                 0                       # Number of prefetchs
system.gpu.shader_mmu.prefetchFaults                0                       # Number of faults caused by prefetches
system.gpu.shader_mmu.pagefaultLatency::samples            0                       # Latency to complete the pagefault
system.gpu.shader_mmu.pagefaultLatency::mean          nan                       # Latency to complete the pagefault
system.gpu.shader_mmu.pagefaultLatency::gmean          nan                       # Latency to complete the pagefault
system.gpu.shader_mmu.pagefaultLatency::stdev          nan                       # Latency to complete the pagefault
system.gpu.shader_mmu.pagefaultLatency::0            0                       # Latency to complete the pagefault
system.gpu.shader_mmu.pagefaultLatency::1            0                       # Latency to complete the pagefault
system.gpu.shader_mmu.pagefaultLatency::2            0                       # Latency to complete the pagefault
system.gpu.shader_mmu.pagefaultLatency::3            0                       # Latency to complete the pagefault
system.gpu.shader_mmu.pagefaultLatency::4            0                       # Latency to complete the pagefault
system.gpu.shader_mmu.pagefaultLatency::5            0                       # Latency to complete the pagefault
system.gpu.shader_mmu.pagefaultLatency::6            0                       # Latency to complete the pagefault
system.gpu.shader_mmu.pagefaultLatency::7            0                       # Latency to complete the pagefault
system.gpu.shader_mmu.pagefaultLatency::8            0                       # Latency to complete the pagefault
system.gpu.shader_mmu.pagefaultLatency::9            0                       # Latency to complete the pagefault
system.gpu.shader_mmu.pagefaultLatency::10            0                       # Latency to complete the pagefault
system.gpu.shader_mmu.pagefaultLatency::11            0                       # Latency to complete the pagefault
system.gpu.shader_mmu.pagefaultLatency::12            0                       # Latency to complete the pagefault
system.gpu.shader_mmu.pagefaultLatency::13            0                       # Latency to complete the pagefault
system.gpu.shader_mmu.pagefaultLatency::14            0                       # Latency to complete the pagefault
system.gpu.shader_mmu.pagefaultLatency::15            0                       # Latency to complete the pagefault
system.gpu.shader_mmu.pagefaultLatency::16            0                       # Latency to complete the pagefault
system.gpu.shader_mmu.pagefaultLatency::17            0                       # Latency to complete the pagefault
system.gpu.shader_mmu.pagefaultLatency::18            0                       # Latency to complete the pagefault
system.gpu.shader_mmu.pagefaultLatency::19            0                       # Latency to complete the pagefault
system.gpu.shader_mmu.pagefaultLatency::20            0                       # Latency to complete the pagefault
system.gpu.shader_mmu.pagefaultLatency::21            0                       # Latency to complete the pagefault
system.gpu.shader_mmu.pagefaultLatency::22            0                       # Latency to complete the pagefault
system.gpu.shader_mmu.pagefaultLatency::23            0                       # Latency to complete the pagefault
system.gpu.shader_mmu.pagefaultLatency::24            0                       # Latency to complete the pagefault
system.gpu.shader_mmu.pagefaultLatency::25            0                       # Latency to complete the pagefault
system.gpu.shader_mmu.pagefaultLatency::26            0                       # Latency to complete the pagefault
system.gpu.shader_mmu.pagefaultLatency::27            0                       # Latency to complete the pagefault
system.gpu.shader_mmu.pagefaultLatency::28            0                       # Latency to complete the pagefault
system.gpu.shader_mmu.pagefaultLatency::29            0                       # Latency to complete the pagefault
system.gpu.shader_mmu.pagefaultLatency::30            0                       # Latency to complete the pagefault
system.gpu.shader_mmu.pagefaultLatency::31            0                       # Latency to complete the pagefault
system.gpu.shader_mmu.pagefaultLatency::total            0                       # Latency to complete the pagefault
system.gpu.shader_mmu.concurrentWalks::samples          168                       # Number of outstanding walks
system.gpu.shader_mmu.concurrentWalks::mean            0                       # Number of outstanding walks
system.gpu.shader_mmu.concurrentWalks::gmean            0                       # Number of outstanding walks
system.gpu.shader_mmu.concurrentWalks::stdev            0                       # Number of outstanding walks
system.gpu.shader_mmu.concurrentWalks::0          168    100.00%    100.00% # Number of outstanding walks
system.gpu.shader_mmu.concurrentWalks::1            0      0.00%    100.00% # Number of outstanding walks
system.gpu.shader_mmu.concurrentWalks::2            0      0.00%    100.00% # Number of outstanding walks
system.gpu.shader_mmu.concurrentWalks::3            0      0.00%    100.00% # Number of outstanding walks
system.gpu.shader_mmu.concurrentWalks::4            0      0.00%    100.00% # Number of outstanding walks
system.gpu.shader_mmu.concurrentWalks::5            0      0.00%    100.00% # Number of outstanding walks
system.gpu.shader_mmu.concurrentWalks::6            0      0.00%    100.00% # Number of outstanding walks
system.gpu.shader_mmu.concurrentWalks::7            0      0.00%    100.00% # Number of outstanding walks
system.gpu.shader_mmu.concurrentWalks::8            0      0.00%    100.00% # Number of outstanding walks
system.gpu.shader_mmu.concurrentWalks::9            0      0.00%    100.00% # Number of outstanding walks
system.gpu.shader_mmu.concurrentWalks::10            0      0.00%    100.00% # Number of outstanding walks
system.gpu.shader_mmu.concurrentWalks::11            0      0.00%    100.00% # Number of outstanding walks
system.gpu.shader_mmu.concurrentWalks::12            0      0.00%    100.00% # Number of outstanding walks
system.gpu.shader_mmu.concurrentWalks::13            0      0.00%    100.00% # Number of outstanding walks
system.gpu.shader_mmu.concurrentWalks::14            0      0.00%    100.00% # Number of outstanding walks
system.gpu.shader_mmu.concurrentWalks::15            0      0.00%    100.00% # Number of outstanding walks
system.gpu.shader_mmu.concurrentWalks::total          168                       # Number of outstanding walks
system.gpu.shader_mmu.pagewalkLatency::samples          168                       # Latency to complete the pagewalk
system.gpu.shader_mmu.pagewalkLatency::mean            0                       # Latency to complete the pagewalk
system.gpu.shader_mmu.pagewalkLatency::gmean            0                       # Latency to complete the pagewalk
system.gpu.shader_mmu.pagewalkLatency::stdev            0                       # Latency to complete the pagewalk
system.gpu.shader_mmu.pagewalkLatency::0          168    100.00%    100.00% # Latency to complete the pagewalk
system.gpu.shader_mmu.pagewalkLatency::1            0      0.00%    100.00% # Latency to complete the pagewalk
system.gpu.shader_mmu.pagewalkLatency::2            0      0.00%    100.00% # Latency to complete the pagewalk
system.gpu.shader_mmu.pagewalkLatency::3            0      0.00%    100.00% # Latency to complete the pagewalk
system.gpu.shader_mmu.pagewalkLatency::4            0      0.00%    100.00% # Latency to complete the pagewalk
system.gpu.shader_mmu.pagewalkLatency::5            0      0.00%    100.00% # Latency to complete the pagewalk
system.gpu.shader_mmu.pagewalkLatency::6            0      0.00%    100.00% # Latency to complete the pagewalk
system.gpu.shader_mmu.pagewalkLatency::7            0      0.00%    100.00% # Latency to complete the pagewalk
system.gpu.shader_mmu.pagewalkLatency::8            0      0.00%    100.00% # Latency to complete the pagewalk
system.gpu.shader_mmu.pagewalkLatency::9            0      0.00%    100.00% # Latency to complete the pagewalk
system.gpu.shader_mmu.pagewalkLatency::10            0      0.00%    100.00% # Latency to complete the pagewalk
system.gpu.shader_mmu.pagewalkLatency::11            0      0.00%    100.00% # Latency to complete the pagewalk
system.gpu.shader_mmu.pagewalkLatency::12            0      0.00%    100.00% # Latency to complete the pagewalk
system.gpu.shader_mmu.pagewalkLatency::13            0      0.00%    100.00% # Latency to complete the pagewalk
system.gpu.shader_mmu.pagewalkLatency::14            0      0.00%    100.00% # Latency to complete the pagewalk
system.gpu.shader_mmu.pagewalkLatency::15            0      0.00%    100.00% # Latency to complete the pagewalk
system.gpu.shader_mmu.pagewalkLatency::16            0      0.00%    100.00% # Latency to complete the pagewalk
system.gpu.shader_mmu.pagewalkLatency::17            0      0.00%    100.00% # Latency to complete the pagewalk
system.gpu.shader_mmu.pagewalkLatency::18            0      0.00%    100.00% # Latency to complete the pagewalk
system.gpu.shader_mmu.pagewalkLatency::19            0      0.00%    100.00% # Latency to complete the pagewalk
system.gpu.shader_mmu.pagewalkLatency::20            0      0.00%    100.00% # Latency to complete the pagewalk
system.gpu.shader_mmu.pagewalkLatency::21            0      0.00%    100.00% # Latency to complete the pagewalk
system.gpu.shader_mmu.pagewalkLatency::22            0      0.00%    100.00% # Latency to complete the pagewalk
system.gpu.shader_mmu.pagewalkLatency::23            0      0.00%    100.00% # Latency to complete the pagewalk
system.gpu.shader_mmu.pagewalkLatency::24            0      0.00%    100.00% # Latency to complete the pagewalk
system.gpu.shader_mmu.pagewalkLatency::25            0      0.00%    100.00% # Latency to complete the pagewalk
system.gpu.shader_mmu.pagewalkLatency::26            0      0.00%    100.00% # Latency to complete the pagewalk
system.gpu.shader_mmu.pagewalkLatency::27            0      0.00%    100.00% # Latency to complete the pagewalk
system.gpu.shader_mmu.pagewalkLatency::28            0      0.00%    100.00% # Latency to complete the pagewalk
system.gpu.shader_mmu.pagewalkLatency::29            0      0.00%    100.00% # Latency to complete the pagewalk
system.gpu.shader_mmu.pagewalkLatency::30            0      0.00%    100.00% # Latency to complete the pagewalk
system.gpu.shader_mmu.pagewalkLatency::31            0      0.00%    100.00% # Latency to complete the pagewalk
system.gpu.shader_mmu.pagewalkLatency::total          168                       # Latency to complete the pagewalk
system.gpu.kernels_started                          2                       # Number of kernels started
system.gpu.kernels_completed                        2                       # Number of kernels completed
system.gpu.shader_cores0.itb.hits                   0                       # Number of hits in this TLB
system.gpu.shader_cores0.itb.misses                 0                       # Number of misses in this TLB
system.gpu.shader_cores0.itb.hitRate              nan                       # Hit rate for this TLB
system.gpu.shader_cores0.local_loads                0                       # Number of loads from local space
system.gpu.shader_cores0.local_stores               0                       # Number of stores to local space
system.gpu.shader_cores0.shared_loads            5056                       # Number of loads from shared space
system.gpu.shader_cores0.shared_stores           3072                       # Number of stores to shared space
system.gpu.shader_cores0.param_kernel_loads         7296                       # Number of loads from kernel parameter space
system.gpu.shader_cores0.param_local_loads            0                       # Number of loads from local parameter space
system.gpu.shader_cores0.param_local_stores            0                       # Number of stores to local parameter space
system.gpu.shader_cores0.const_loads                0                       # Number of loads from constant space
system.gpu.shader_cores0.tex_loads                  0                       # Number of loads from texture space
system.gpu.shader_cores0.global_loads            8256                       # Number of loads from global space
system.gpu.shader_cores0.global_stores           3136                       # Number of stores to global space
system.gpu.shader_cores0.surf_loads                 0                       # Number of loads from surface space
system.gpu.shader_cores0.generic_loads              0                       # Number of loads from generic spaces (global, shared, local)
system.gpu.shader_cores0.generic_stores             0                       # Number of stores to generic spaces (global, shared, local)
system.gpu.shader_cores0.inst_cache_requests           12                       # Number of instruction cache requests sent
system.gpu.shader_cores0.inst_cache_retries            0                       # Number of instruction cache retries
system.gpu.shader_cores0.inst_counts::0             0                       # Inst counts: 1: ALU, 2: MAD, 3: CTRL, 4: SFU, 5: MEM, 6: TEX, 7: NOP
system.gpu.shader_cores0.inst_counts::1        130176                       # Inst counts: 1: ALU, 2: MAD, 3: CTRL, 4: SFU, 5: MEM, 6: TEX, 7: NOP
system.gpu.shader_cores0.inst_counts::2          2048                       # Inst counts: 1: ALU, 2: MAD, 3: CTRL, 4: SFU, 5: MEM, 6: TEX, 7: NOP
system.gpu.shader_cores0.inst_counts::3         20416                       # Inst counts: 1: ALU, 2: MAD, 3: CTRL, 4: SFU, 5: MEM, 6: TEX, 7: NOP
system.gpu.shader_cores0.inst_counts::4          6144                       # Inst counts: 1: ALU, 2: MAD, 3: CTRL, 4: SFU, 5: MEM, 6: TEX, 7: NOP
system.gpu.shader_cores0.inst_counts::5         26816                       # Inst counts: 1: ALU, 2: MAD, 3: CTRL, 4: SFU, 5: MEM, 6: TEX, 7: NOP
system.gpu.shader_cores0.inst_counts::6             0                       # Inst counts: 1: ALU, 2: MAD, 3: CTRL, 4: SFU, 5: MEM, 6: TEX, 7: NOP
system.gpu.shader_cores0.inst_counts::7             0                       # Inst counts: 1: ALU, 2: MAD, 3: CTRL, 4: SFU, 5: MEM, 6: TEX, 7: NOP
system.gpu.shader_cores0.activeCycles            6157                       # Number of cycles this shader was executing a CTA
system.gpu.shader_cores0.notStalledCycles         4665                       # Number of cycles this shader was actually executing at least one instance
system.gpu.shader_cores0.instInstances         185600                       # Total instructions executed by all PEs in the core
system.gpu.shader_cores0.instPerCycle       30.144551                       # Instruction instances per cycle
system.gpu.shader_cores0.kernels_completed            2                       # Number of kernels completed
system.gpu.shader_cores0.lsq.data_tlb.hits            0                       # Number of hits in this TLB
system.gpu.shader_cores0.lsq.data_tlb.misses            0                       # Number of misses in this TLB
system.gpu.shader_cores0.lsq.data_tlb.hitRate          nan                       # Hit rate for this TLB
system.gpu.shader_cores0.lsq.warpInstBufActive::samples      7532259                       # Histogram of number of active warp inst buffers at a given time
system.gpu.shader_cores0.lsq.warpInstBufActive::mean     6.197685                       # Histogram of number of active warp inst buffers at a given time
system.gpu.shader_cores0.lsq.warpInstBufActive::gmean          nan                       # Histogram of number of active warp inst buffers at a given time
system.gpu.shader_cores0.lsq.warpInstBufActive::stdev     9.827116                       # Histogram of number of active warp inst buffers at a given time
system.gpu.shader_cores0.lsq.warpInstBufActive::0      2999471     39.82%     39.82% # Histogram of number of active warp inst buffers at a given time
system.gpu.shader_cores0.lsq.warpInstBufActive::1      1074608     14.27%     54.09% # Histogram of number of active warp inst buffers at a given time
system.gpu.shader_cores0.lsq.warpInstBufActive::2       584461      7.76%     61.85% # Histogram of number of active warp inst buffers at a given time
system.gpu.shader_cores0.lsq.warpInstBufActive::3       250075      3.32%     65.17% # Histogram of number of active warp inst buffers at a given time
system.gpu.shader_cores0.lsq.warpInstBufActive::4       222924      2.96%     68.13% # Histogram of number of active warp inst buffers at a given time
system.gpu.shader_cores0.lsq.warpInstBufActive::5       177196      2.35%     70.48% # Histogram of number of active warp inst buffers at a given time
system.gpu.shader_cores0.lsq.warpInstBufActive::6       148616      1.97%     72.45% # Histogram of number of active warp inst buffers at a given time
system.gpu.shader_cores0.lsq.warpInstBufActive::7       124323      1.65%     74.10% # Histogram of number of active warp inst buffers at a given time
system.gpu.shader_cores0.lsq.warpInstBufActive::8       164335      2.18%     76.29% # Histogram of number of active warp inst buffers at a given time
system.gpu.shader_cores0.lsq.warpInstBufActive::9       110033      1.46%     77.75% # Histogram of number of active warp inst buffers at a given time
system.gpu.shader_cores0.lsq.warpInstBufActive::10        82882      1.10%     78.85% # Histogram of number of active warp inst buffers at a given time
system.gpu.shader_cores0.lsq.warpInstBufActive::11       114320      1.52%     80.36% # Histogram of number of active warp inst buffers at a given time
system.gpu.shader_cores0.lsq.warpInstBufActive::12       144329      1.92%     82.28% # Histogram of number of active warp inst buffers at a given time
system.gpu.shader_cores0.lsq.warpInstBufActive::13        98601      1.31%     83.59% # Histogram of number of active warp inst buffers at a given time
system.gpu.shader_cores0.lsq.warpInstBufActive::14        71450      0.95%     84.54% # Histogram of number of active warp inst buffers at a given time
system.gpu.shader_cores0.lsq.warpInstBufActive::15        38583      0.51%     85.05% # Histogram of number of active warp inst buffers at a given time
system.gpu.shader_cores0.lsq.warpInstBufActive::16        20006      0.27%     85.32% # Histogram of number of active warp inst buffers at a given time
system.gpu.shader_cores0.lsq.warpInstBufActive::17        27151      0.36%     85.68% # Histogram of number of active warp inst buffers at a given time
system.gpu.shader_cores0.lsq.warpInstBufActive::18        47157      0.63%     86.30% # Histogram of number of active warp inst buffers at a given time
system.gpu.shader_cores0.lsq.warpInstBufActive::19        35725      0.47%     86.78% # Histogram of number of active warp inst buffers at a given time
system.gpu.shader_cores0.lsq.warpInstBufActive::20        47157      0.63%     87.40% # Histogram of number of active warp inst buffers at a given time
system.gpu.shader_cores0.lsq.warpInstBufActive::21        50015      0.66%     88.07% # Histogram of number of active warp inst buffers at a given time
system.gpu.shader_cores0.lsq.warpInstBufActive::22        30009      0.40%     88.47% # Histogram of number of active warp inst buffers at a given time
system.gpu.shader_cores0.lsq.warpInstBufActive::23        12861      0.17%     88.64% # Histogram of number of active warp inst buffers at a given time
system.gpu.shader_cores0.lsq.warpInstBufActive::24        21435      0.28%     88.92% # Histogram of number of active warp inst buffers at a given time
system.gpu.shader_cores0.lsq.warpInstBufActive::25         8574      0.11%     89.03% # Histogram of number of active warp inst buffers at a given time
system.gpu.shader_cores0.lsq.warpInstBufActive::26         2858      0.04%     89.07% # Histogram of number of active warp inst buffers at a given time
system.gpu.shader_cores0.lsq.warpInstBufActive::27        21435      0.28%     89.36% # Histogram of number of active warp inst buffers at a given time
system.gpu.shader_cores0.lsq.warpInstBufActive::28        34296      0.46%     89.81% # Histogram of number of active warp inst buffers at a given time
system.gpu.shader_cores0.lsq.warpInstBufActive::29       122894      1.63%     91.44% # Histogram of number of active warp inst buffers at a given time
system.gpu.shader_cores0.lsq.warpInstBufActive::30       177196      2.35%     93.80% # Histogram of number of active warp inst buffers at a given time
system.gpu.shader_cores0.lsq.warpInstBufActive::31       268652      3.57%     97.36% # Histogram of number of active warp inst buffers at a given time
system.gpu.shader_cores0.lsq.warpInstBufActive::32       198631      2.64%    100.00% # Histogram of number of active warp inst buffers at a given time
system.gpu.shader_cores0.lsq.warpInstBufActive::33            0      0.00%    100.00% # Histogram of number of active warp inst buffers at a given time
system.gpu.shader_cores0.lsq.warpInstBufActive::34            0      0.00%    100.00% # Histogram of number of active warp inst buffers at a given time
system.gpu.shader_cores0.lsq.warpInstBufActive::35            0      0.00%    100.00% # Histogram of number of active warp inst buffers at a given time
system.gpu.shader_cores0.lsq.warpInstBufActive::36            0      0.00%    100.00% # Histogram of number of active warp inst buffers at a given time
system.gpu.shader_cores0.lsq.warpInstBufActive::37            0      0.00%    100.00% # Histogram of number of active warp inst buffers at a given time
system.gpu.shader_cores0.lsq.warpInstBufActive::38            0      0.00%    100.00% # Histogram of number of active warp inst buffers at a given time
system.gpu.shader_cores0.lsq.warpInstBufActive::39            0      0.00%    100.00% # Histogram of number of active warp inst buffers at a given time
system.gpu.shader_cores0.lsq.warpInstBufActive::40            0      0.00%    100.00% # Histogram of number of active warp inst buffers at a given time
system.gpu.shader_cores0.lsq.warpInstBufActive::41            0      0.00%    100.00% # Histogram of number of active warp inst buffers at a given time
system.gpu.shader_cores0.lsq.warpInstBufActive::42            0      0.00%    100.00% # Histogram of number of active warp inst buffers at a given time
system.gpu.shader_cores0.lsq.warpInstBufActive::43            0      0.00%    100.00% # Histogram of number of active warp inst buffers at a given time
system.gpu.shader_cores0.lsq.warpInstBufActive::44            0      0.00%    100.00% # Histogram of number of active warp inst buffers at a given time
system.gpu.shader_cores0.lsq.warpInstBufActive::45            0      0.00%    100.00% # Histogram of number of active warp inst buffers at a given time
system.gpu.shader_cores0.lsq.warpInstBufActive::46            0      0.00%    100.00% # Histogram of number of active warp inst buffers at a given time
system.gpu.shader_cores0.lsq.warpInstBufActive::47            0      0.00%    100.00% # Histogram of number of active warp inst buffers at a given time
system.gpu.shader_cores0.lsq.warpInstBufActive::48            0      0.00%    100.00% # Histogram of number of active warp inst buffers at a given time
system.gpu.shader_cores0.lsq.warpInstBufActive::49            0      0.00%    100.00% # Histogram of number of active warp inst buffers at a given time
system.gpu.shader_cores0.lsq.warpInstBufActive::50            0      0.00%    100.00% # Histogram of number of active warp inst buffers at a given time
system.gpu.shader_cores0.lsq.warpInstBufActive::51            0      0.00%    100.00% # Histogram of number of active warp inst buffers at a given time
system.gpu.shader_cores0.lsq.warpInstBufActive::52            0      0.00%    100.00% # Histogram of number of active warp inst buffers at a given time
system.gpu.shader_cores0.lsq.warpInstBufActive::53            0      0.00%    100.00% # Histogram of number of active warp inst buffers at a given time
system.gpu.shader_cores0.lsq.warpInstBufActive::54            0      0.00%    100.00% # Histogram of number of active warp inst buffers at a given time
system.gpu.shader_cores0.lsq.warpInstBufActive::55            0      0.00%    100.00% # Histogram of number of active warp inst buffers at a given time
system.gpu.shader_cores0.lsq.warpInstBufActive::56            0      0.00%    100.00% # Histogram of number of active warp inst buffers at a given time
system.gpu.shader_cores0.lsq.warpInstBufActive::57            0      0.00%    100.00% # Histogram of number of active warp inst buffers at a given time
system.gpu.shader_cores0.lsq.warpInstBufActive::58            0      0.00%    100.00% # Histogram of number of active warp inst buffers at a given time
system.gpu.shader_cores0.lsq.warpInstBufActive::59            0      0.00%    100.00% # Histogram of number of active warp inst buffers at a given time
system.gpu.shader_cores0.lsq.warpInstBufActive::60            0      0.00%    100.00% # Histogram of number of active warp inst buffers at a given time
system.gpu.shader_cores0.lsq.warpInstBufActive::61            0      0.00%    100.00% # Histogram of number of active warp inst buffers at a given time
system.gpu.shader_cores0.lsq.warpInstBufActive::62            0      0.00%    100.00% # Histogram of number of active warp inst buffers at a given time
system.gpu.shader_cores0.lsq.warpInstBufActive::63            0      0.00%    100.00% # Histogram of number of active warp inst buffers at a given time
system.gpu.shader_cores0.lsq.warpInstBufActive::64            0      0.00%    100.00% # Histogram of number of active warp inst buffers at a given time
system.gpu.shader_cores0.lsq.warpInstBufActive::total      7532259                       # Histogram of number of active warp inst buffers at a given time
system.gpu.shader_cores0.lsq.cacheAccesses     0.001862                       # Average number of concurrent outstanding cache accesses
system.gpu.shader_cores0.lsq.writebackBlockedCycles           77                       # Number of cycles blocked for core writeback stage
system.gpu.shader_cores0.lsq.mshrHitQueued          175                       # Number of hits on blocked lines in MSHRs
system.gpu.shader_cores0.lsq.mshrsFullCycles            0                       # Number of cycles stalled waiting for an MSHR
system.gpu.shader_cores0.lsq.mshrsFullCount            0                       # Number of times MSHRs filled
system.gpu.shader_cores0.lsq.warpCoalescedAccesses::samples          416                       # Number of coalesced accesses per warp instruction
system.gpu.shader_cores0.lsq.warpCoalescedAccesses::mean     1.769231                       # Number of coalesced accesses per warp instruction
system.gpu.shader_cores0.lsq.warpCoalescedAccesses::gmean     1.608176                       # Number of coalesced accesses per warp instruction
system.gpu.shader_cores0.lsq.warpCoalescedAccesses::stdev     0.763388                       # Number of coalesced accesses per warp instruction
system.gpu.shader_cores0.lsq.warpCoalescedAccesses::0            0      0.00%      0.00% # Number of coalesced accesses per warp instruction
system.gpu.shader_cores0.lsq.warpCoalescedAccesses::1          180     43.27%     43.27% # Number of coalesced accesses per warp instruction
system.gpu.shader_cores0.lsq.warpCoalescedAccesses::2          152     36.54%     79.81% # Number of coalesced accesses per warp instruction
system.gpu.shader_cores0.lsq.warpCoalescedAccesses::3           84     20.19%    100.00% # Number of coalesced accesses per warp instruction
system.gpu.shader_cores0.lsq.warpCoalescedAccesses::4            0      0.00%    100.00% # Number of coalesced accesses per warp instruction
system.gpu.shader_cores0.lsq.warpCoalescedAccesses::5            0      0.00%    100.00% # Number of coalesced accesses per warp instruction
system.gpu.shader_cores0.lsq.warpCoalescedAccesses::6            0      0.00%    100.00% # Number of coalesced accesses per warp instruction
system.gpu.shader_cores0.lsq.warpCoalescedAccesses::7            0      0.00%    100.00% # Number of coalesced accesses per warp instruction
system.gpu.shader_cores0.lsq.warpCoalescedAccesses::8            0      0.00%    100.00% # Number of coalesced accesses per warp instruction
system.gpu.shader_cores0.lsq.warpCoalescedAccesses::9            0      0.00%    100.00% # Number of coalesced accesses per warp instruction
system.gpu.shader_cores0.lsq.warpCoalescedAccesses::10            0      0.00%    100.00% # Number of coalesced accesses per warp instruction
system.gpu.shader_cores0.lsq.warpCoalescedAccesses::11            0      0.00%    100.00% # Number of coalesced accesses per warp instruction
system.gpu.shader_cores0.lsq.warpCoalescedAccesses::12            0      0.00%    100.00% # Number of coalesced accesses per warp instruction
system.gpu.shader_cores0.lsq.warpCoalescedAccesses::13            0      0.00%    100.00% # Number of coalesced accesses per warp instruction
system.gpu.shader_cores0.lsq.warpCoalescedAccesses::14            0      0.00%    100.00% # Number of coalesced accesses per warp instruction
system.gpu.shader_cores0.lsq.warpCoalescedAccesses::15            0      0.00%    100.00% # Number of coalesced accesses per warp instruction
system.gpu.shader_cores0.lsq.warpCoalescedAccesses::16            0      0.00%    100.00% # Number of coalesced accesses per warp instruction
system.gpu.shader_cores0.lsq.warpCoalescedAccesses::17            0      0.00%    100.00% # Number of coalesced accesses per warp instruction
system.gpu.shader_cores0.lsq.warpCoalescedAccesses::18            0      0.00%    100.00% # Number of coalesced accesses per warp instruction
system.gpu.shader_cores0.lsq.warpCoalescedAccesses::19            0      0.00%    100.00% # Number of coalesced accesses per warp instruction
system.gpu.shader_cores0.lsq.warpCoalescedAccesses::20            0      0.00%    100.00% # Number of coalesced accesses per warp instruction
system.gpu.shader_cores0.lsq.warpCoalescedAccesses::21            0      0.00%    100.00% # Number of coalesced accesses per warp instruction
system.gpu.shader_cores0.lsq.warpCoalescedAccesses::22            0      0.00%    100.00% # Number of coalesced accesses per warp instruction
system.gpu.shader_cores0.lsq.warpCoalescedAccesses::23            0      0.00%    100.00% # Number of coalesced accesses per warp instruction
system.gpu.shader_cores0.lsq.warpCoalescedAccesses::24            0      0.00%    100.00% # Number of coalesced accesses per warp instruction
system.gpu.shader_cores0.lsq.warpCoalescedAccesses::25            0      0.00%    100.00% # Number of coalesced accesses per warp instruction
system.gpu.shader_cores0.lsq.warpCoalescedAccesses::26            0      0.00%    100.00% # Number of coalesced accesses per warp instruction
system.gpu.shader_cores0.lsq.warpCoalescedAccesses::27            0      0.00%    100.00% # Number of coalesced accesses per warp instruction
system.gpu.shader_cores0.lsq.warpCoalescedAccesses::28            0      0.00%    100.00% # Number of coalesced accesses per warp instruction
system.gpu.shader_cores0.lsq.warpCoalescedAccesses::29            0      0.00%    100.00% # Number of coalesced accesses per warp instruction
system.gpu.shader_cores0.lsq.warpCoalescedAccesses::30            0      0.00%    100.00% # Number of coalesced accesses per warp instruction
system.gpu.shader_cores0.lsq.warpCoalescedAccesses::31            0      0.00%    100.00% # Number of coalesced accesses per warp instruction
system.gpu.shader_cores0.lsq.warpCoalescedAccesses::32            0      0.00%    100.00% # Number of coalesced accesses per warp instruction
system.gpu.shader_cores0.lsq.warpCoalescedAccesses::total          416                       # Number of coalesced accesses per warp instruction
system.gpu.shader_cores0.lsq.warpLatencyRead::samples          288                       # Latency in cycles for whole warp to finish the read
system.gpu.shader_cores0.lsq.warpLatencyRead::mean    93.729167                       # Latency in cycles for whole warp to finish the read
system.gpu.shader_cores0.lsq.warpLatencyRead::gmean    44.897831                       # Latency in cycles for whole warp to finish the read
system.gpu.shader_cores0.lsq.warpLatencyRead::stdev   116.891547                       # Latency in cycles for whole warp to finish the read
system.gpu.shader_cores0.lsq.warpLatencyRead::0-31          136     47.22%     47.22% # Latency in cycles for whole warp to finish the read
system.gpu.shader_cores0.lsq.warpLatencyRead::32-63           49     17.01%     64.24% # Latency in cycles for whole warp to finish the read
system.gpu.shader_cores0.lsq.warpLatencyRead::64-95           13      4.51%     68.75% # Latency in cycles for whole warp to finish the read
system.gpu.shader_cores0.lsq.warpLatencyRead::96-127           17      5.90%     74.65% # Latency in cycles for whole warp to finish the read
system.gpu.shader_cores0.lsq.warpLatencyRead::128-159           17      5.90%     80.56% # Latency in cycles for whole warp to finish the read
system.gpu.shader_cores0.lsq.warpLatencyRead::160-191            8      2.78%     83.33% # Latency in cycles for whole warp to finish the read
system.gpu.shader_cores0.lsq.warpLatencyRead::192-223            6      2.08%     85.42% # Latency in cycles for whole warp to finish the read
system.gpu.shader_cores0.lsq.warpLatencyRead::224-255            6      2.08%     87.50% # Latency in cycles for whole warp to finish the read
system.gpu.shader_cores0.lsq.warpLatencyRead::256-287            3      1.04%     88.54% # Latency in cycles for whole warp to finish the read
system.gpu.shader_cores0.lsq.warpLatencyRead::288-319            2      0.69%     89.24% # Latency in cycles for whole warp to finish the read
system.gpu.shader_cores0.lsq.warpLatencyRead::320-351            2      0.69%     89.93% # Latency in cycles for whole warp to finish the read
system.gpu.shader_cores0.lsq.warpLatencyRead::352-383           22      7.64%     97.57% # Latency in cycles for whole warp to finish the read
[...]
system.ruby.L1Cache_Controller.Fwd_GETX::total          212                      
system.ruby.L1Cache_Controller.Fwd_GETS  |         187     43.90%     43.90% |          60     14.08%     57.98% |          52     12.21%     70.19% |          50     11.74%     81.92% |          52     12.21%     94.13% |           0      0.00%     94.13% |          25      5.87%    100.00%
system.ruby.L1Cache_Controller.Fwd_GETS::total          426                      
system.ruby.L1Cache_Controller.Data      |           4      3.96%      3.96% |           0      0.00%      3.96% |           0      0.00%      3.96% |           0      0.00%      3.96% |           0      0.00%      3.96% |           0      0.00%      3.96% |          97     96.04%    100.00%
system.ruby.L1Cache_Controller.Data::total          101                      
system.ruby.L1Cache_Controller.Data_Exclusive |         633     53.92%     53.92% |          93      7.92%     61.84% |         109      9.28%     71.12% |          97      8.26%     79.39% |         106      9.03%     88.42% |           0      0.00%     88.42% |         136     11.58%    100.00%
system.ruby.L1Cache_Controller.Data_Exclusive::total         1174                      
system.ruby.L1Cache_Controller.DataS_fromL1 |          12      2.82%      2.82% |          24      5.63%      8.45% |          19      4.46%     12.91% |          18      4.23%     17.14% |          21      4.93%     22.07% |           0      0.00%     22.07% |         332     77.93%    100.00%
system.ruby.L1Cache_Controller.DataS_fromL1::total          426                      
system.ruby.L1Cache_Controller.Data_all_Acks |        6357     89.97%     89.97% |          26      0.37%     90.33% |          34      0.48%     90.82% |          34      0.48%     91.30% |          27      0.38%     91.68% |           0      0.00%     91.68% |         588      8.32%    100.00%
system.ruby.L1Cache_Controller.Data_all_Acks::total         7066                      
system.ruby.L1Cache_Controller.Ack       |          18     18.75%     18.75% |          30     31.25%     50.00% |           8      8.33%     58.33% |          15     15.62%     73.96% |          20     20.83%     94.79% |           0      0.00%     94.79% |           5      5.21%    100.00%
system.ruby.L1Cache_Controller.Ack::total           96                      
system.ruby.L1Cache_Controller.Ack_all   |          13      7.10%      7.10% |          30     16.39%     23.50% |           8      4.37%     27.87% |          15      8.20%     36.07% |          20     10.93%     46.99% |           0      0.00%     46.99% |          97     53.01%    100.00%
system.ruby.L1Cache_Controller.Ack_all::total          183                      
system.ruby.L1Cache_Controller.WB_Ack    |         822     54.73%     54.73% |           0      0.00%     54.73% |           0      0.00%     54.73% |           0      0.00%     54.73% |           0      0.00%     54.73% |           0      0.00%     54.73% |         680     45.27%    100.00%
system.ruby.L1Cache_Controller.WB_Ack::total         1502                      
system.ruby.L1Cache_Controller.NP.Load   |         624     40.70%     40.70% |          81      5.28%     45.99% |          85      5.54%     51.53% |          81      5.28%     56.82% |          85      5.54%     62.36% |           0      0.00%     62.36% |         577     37.64%    100.00%
system.ruby.L1Cache_Controller.NP.Load::total         1533                      
system.ruby.L1Cache_Controller.NP.Ifetch |        5530     99.12%     99.12% |          12      0.22%     99.34% |          13      0.23%     99.57% |          12      0.22%     99.78% |          12      0.22%    100.00% |           0      0.00%    100.00% |           0      0.00%    100.00%
system.ruby.L1Cache_Controller.NP.Ifetch::total         5579                      
system.ruby.L1Cache_Controller.NP.Store  |         824     58.19%     58.19% |           4      0.28%     58.47% |           4      0.28%     58.76% |           4      0.28%     59.04% |           4      0.28%     59.32% |           0      0.00%     59.32% |         576     40.68%    100.00%
system.ruby.L1Cache_Controller.NP.Store::total         1416                      
system.ruby.L1Cache_Controller.NP.Inv    |          14     60.87%     60.87% |           0      0.00%     60.87% |           0      0.00%     60.87% |           0      0.00%     60.87% |           0      0.00%     60.87% |           0      0.00%     60.87% |           9     39.13%    100.00%
system.ruby.L1Cache_Controller.NP.Inv::total           23                      
system.ruby.L1Cache_Controller.I.Load    |          24     12.77%     12.77% |          38     20.21%     32.98% |          43     22.87%     55.85% |          39     20.74%     76.60% |          44     23.40%    100.00% |           0      0.00%    100.00% |           0      0.00%    100.00%
system.ruby.L1Cache_Controller.I.Load::total          188                      
system.ruby.L1Cache_Controller.I.Store   |           4      7.84%      7.84% |           8     15.69%     23.53% |          17     33.33%     56.86% |          13     25.49%     82.35% |           9     17.65%    100.00% |           0      0.00%    100.00% |           0      0.00%    100.00%
system.ruby.L1Cache_Controller.I.Store::total           51                      
system.ruby.L1Cache_Controller.I.L1_Replacement |          14     46.67%     46.67% |           0      0.00%     46.67% |           0      0.00%     46.67% |           0      0.00%     46.67% |           0      0.00%     46.67% |           0      0.00%     46.67% |          16     53.33%    100.00%
system.ruby.L1Cache_Controller.I.L1_Replacement::total           30                      
system.ruby.L1Cache_Controller.S.Load    |         545     47.19%     47.19% |         137     11.86%     59.05% |         147     12.73%     71.77% |         165     14.29%     86.06% |         161     13.94%    100.00% |           0      0.00%    100.00% |           0      0.00%    100.00%
system.ruby.L1Cache_Controller.S.Load::total         1155                      
system.ruby.L1Cache_Controller.S.Ifetch  |     6659581    100.00%    100.00% |           0      0.00%    100.00% |           0      0.00%    100.00% |           0      0.00%    100.00% |           0      0.00%    100.00% |           0      0.00%    100.00% |           0      0.00%    100.00%
system.ruby.L1Cache_Controller.S.Ifetch::total      6659581                      
system.ruby.L1Cache_Controller.S.Store   |           9     10.98%     10.98% |          30     36.59%     47.56% |           8      9.76%     57.32% |          15     18.29%     75.61% |          20     24.39%    100.00% |           0      0.00%    100.00% |           0      0.00%    100.00%
system.ruby.L1Cache_Controller.S.Store::total           82                      
system.ruby.L1Cache_Controller.S.Inv     |          88     50.57%     50.57% |          16      9.20%     59.77% |          22     12.64%     72.41% |          17      9.77%     82.18% |          14      8.05%     90.23% |           0      0.00%     90.23% |          17      9.77%    100.00%
system.ruby.L1Cache_Controller.S.Inv::total          174                      
system.ruby.L1Cache_Controller.S.L1_Replacement |        5381     92.30%     92.30% |           0      0.00%     92.30% |           0      0.00%     92.30% |           0      0.00%     92.30% |           0      0.00%     92.30% |           0      0.00%     92.30% |         449      7.70%    100.00%
system.ruby.L1Cache_Controller.S.L1_Replacement::total         5830                      
system.ruby.L1Cache_Controller.E.Load    |      135294     99.61%     99.61% |         159      0.12%     99.73% |         127      0.09%     99.83% |         126      0.09%     99.92% |         111      0.08%    100.00% |           0      0.00%    100.00% |           0      0.00%    100.00%
system.ruby.L1Cache_Controller.E.Load::total       135817                      
system.ruby.L1Cache_Controller.E.Store   |         309     46.89%     46.89% |          73     11.08%     57.97% |          99     15.02%     72.99% |          84     12.75%     85.74% |          94     14.26%    100.00% |           0      0.00%    100.00% |           0      0.00%    100.00%
system.ruby.L1Cache_Controller.E.Store::total          659                      
system.ruby.L1Cache_Controller.E.L1_Replacement |         237     63.54%     63.54% |           0      0.00%     63.54% |           0      0.00%     63.54% |           0      0.00%     63.54% |           0      0.00%     63.54% |           0      0.00%     63.54% |         136     36.46%    100.00%
system.ruby.L1Cache_Controller.E.L1_Replacement::total          373                      
system.ruby.L1Cache_Controller.E.Fwd_GETX |          12    100.00%    100.00% |           0      0.00%    100.00% |           0      0.00%    100.00% |           0      0.00%    100.00% |           0      0.00%    100.00% |           0      0.00%    100.00% |           0      0.00%    100.00%
system.ruby.L1Cache_Controller.E.Fwd_GETX::total           12                      
system.ruby.L1Cache_Controller.E.Fwd_GETS |           3      5.17%      5.17% |          20     34.48%     39.66% |          10     17.24%     56.90% |          13     22.41%     79.31% |          12     20.69%    100.00% |           0      0.00%    100.00% |           0      0.00%    100.00%
system.ruby.L1Cache_Controller.E.Fwd_GETS::total           58                      
system.ruby.L1Cache_Controller.M.Load    |     1103973     99.99%     99.99% |          13      0.00%    100.00% |          19      0.00%    100.00% |          17      0.00%    100.00% |          15      0.00%    100.00% |           0      0.00%    100.00% |           0      0.00%    100.00%
system.ruby.L1Cache_Controller.M.Load::total      1104037                      
system.ruby.L1Cache_Controller.M.Store   |      844403     99.91%     99.91% |         193      0.02%     99.93% |         194      0.02%     99.95% |         192      0.02%     99.98% |         193      0.02%    100.00% |           0      0.00%    100.00% |           0      0.00%    100.00%
system.ruby.L1Cache_Controller.M.Store::total       845175                      
system.ruby.L1Cache_Controller.M.L1_Replacement |         585     51.82%     51.82% |           0      0.00%     51.82% |           0      0.00%     51.82% |           0      0.00%     51.82% |           0      0.00%     51.82% |           0      0.00%     51.82% |         544     48.18%    100.00%
system.ruby.L1Cache_Controller.M.L1_Replacement::total         1129                      
system.ruby.L1Cache_Controller.M.Fwd_GETX |           8      4.00%      4.00% |          44     22.00%     26.00% |          50     25.00%     51.00% |          47     23.50%     74.50% |          51     25.50%    100.00% |           0      0.00%    100.00% |           0      0.00%    100.00%
system.ruby.L1Cache_Controller.M.Fwd_GETX::total          200                      
system.ruby.L1Cache_Controller.M.Fwd_GETS |         184     50.00%     50.00% |          40     10.87%     60.87% |          42     11.41%     72.28% |          37     10.05%     82.34% |          40     10.87%     93.21% |           0      0.00%     93.21% |          25      6.79%    100.00%
system.ruby.L1Cache_Controller.M.Fwd_GETS::total          368                      
system.ruby.L1Cache_Controller.IS.L1_Replacement |           0      0.00%      0.00% |           0      0.00%      0.00% |           0      0.00%      0.00% |           0      0.00%      0.00% |           0      0.00%      0.00% |           0      0.00%      0.00% |        6040    100.00%    100.00%
system.ruby.L1Cache_Controller.IS.L1_Replacement::total         6040                      
system.ruby.L1Cache_Controller.IS.Data_Exclusive |         633     53.92%     53.92% |          93      7.92%     61.84% |         109      9.28%     71.12% |          97      8.26%     79.39% |         106      9.03%     88.42% |           0      0.00%     88.42% |         136     11.58%    100.00%
system.ruby.L1Cache_Controller.IS.Data_Exclusive::total         1174                      
system.ruby.L1Cache_Controller.IS.DataS_fromL1 |          12      2.82%      2.82% |          24      5.63%      8.45% |          19      4.46%     12.91% |          18      4.23%     17.14% |          21      4.93%     22.07% |           0      0.00%     22.07% |         332     77.93%    100.00%
system.ruby.L1Cache_Controller.IS.DataS_fromL1::total          426                      
system.ruby.L1Cache_Controller.IS.Data_all_Acks |        5533     97.07%     97.07% |          14      0.25%     97.32% |          13      0.23%     97.54% |          17      0.30%     97.84% |          14      0.25%     98.09% |           0      0.00%     98.09% |         109      1.91%    100.00%
system.ruby.L1Cache_Controller.IS.Data_all_Acks::total         5700                      
system.ruby.L1Cache_Controller.IM.L1_Replacement |           0      0.00%      0.00% |           0      0.00%      0.00% |           0      0.00%      0.00% |           0      0.00%      0.00% |           0      0.00%      0.00% |           0      0.00%      0.00% |        5368    100.00%    100.00%
system.ruby.L1Cache_Controller.IM.L1_Replacement::total         5368                      
system.ruby.L1Cache_Controller.IM.Data   |           4      3.96%      3.96% |           0      0.00%      3.96% |           0      0.00%      3.96% |           0      0.00%      3.96% |           0      0.00%      3.96% |           0      0.00%      3.96% |          97     96.04%    100.00%
system.ruby.L1Cache_Controller.IM.Data::total          101                      
system.ruby.L1Cache_Controller.IM.Data_all_Acks |         824     60.32%     60.32% |          12      0.88%     61.20% |          21      1.54%     62.74% |          17      1.24%     63.98% |          13      0.95%     64.93% |           0      0.00%     64.93% |         479     35.07%    100.00%
system.ruby.L1Cache_Controller.IM.Data_all_Acks::total         1366                      
system.ruby.L1Cache_Controller.IM.Ack    |           0      0.00%      0.00% |           0      0.00%      0.00% |           0      0.00%      0.00% |           0      0.00%      0.00% |           0      0.00%      0.00% |           0      0.00%      0.00% |           5    100.00%    100.00%
system.ruby.L1Cache_Controller.IM.Ack::total            5                      
system.ruby.L1Cache_Controller.SM.L1_Replacement |           0      0.00%      0.00% |           0      0.00%      0.00% |           0      0.00%      0.00% |           0      0.00%      0.00% |           0      0.00%      0.00% |           0      0.00%      0.00% |         168    100.00%    100.00%
system.ruby.L1Cache_Controller.SM.L1_Replacement::total          168                      
system.ruby.L1Cache_Controller.SM.Ack    |          18     19.78%     19.78% |          30     32.97%     52.75% |           8      8.79%     61.54% |          15     16.48%     78.02% |          20     21.98%    100.00% |           0      0.00%    100.00% |           0      0.00%    100.00%
system.ruby.L1Cache_Controller.SM.Ack::total           91                      
system.ruby.L1Cache_Controller.SM.Ack_all |          13      7.10%      7.10% |          30     16.39%     23.50% |           8      4.37%     27.87% |          15      8.20%     36.07% |          20     10.93%     46.99% |           0      0.00%     46.99% |          97     53.01%    100.00%
system.ruby.L1Cache_Controller.SM.Ack_all::total          183                      
system.ruby.L1Cache_Controller.M_I.Ifetch |           2    100.00%    100.00% |           0      0.00%    100.00% |           0      0.00%    100.00% |           0      0.00%    100.00% |           0      0.00%    100.00% |           0      0.00%    100.00% |           0      0.00%    100.00%
system.ruby.L1Cache_Controller.M_I.Ifetch::total            2                      
system.ruby.L1Cache_Controller.M_I.WB_Ack |         822     54.73%     54.73% |           0      0.00%     54.73% |           0      0.00%     54.73% |           0      0.00%     54.73% |           0      0.00%     54.73% |           0      0.00%     54.73% |         680     45.27%    100.00%
system.ruby.L1Cache_Controller.M_I.WB_Ack::total         1502                      
system.ruby.L2Cache_Controller.L1_GET_INSTR         5579      0.00%      0.00%
system.ruby.L2Cache_Controller.L1_GETS           1766      0.00%      0.00%
system.ruby.L2Cache_Controller.L1_GETX           1475      0.00%      0.00%
system.ruby.L2Cache_Controller.L1_UPGRADE           82      0.00%      0.00%
system.ruby.L2Cache_Controller.L1_PUTX           1502      0.00%      0.00%
system.ruby.L2Cache_Controller.Mem_Data          1676      0.00%      0.00%
system.ruby.L2Cache_Controller.WB_Data            368      0.00%      0.00%
system.ruby.L2Cache_Controller.WB_Data_clean           58      0.00%      0.00%
system.ruby.L2Cache_Controller.Unblock            426      0.00%      0.00%
system.ruby.L2Cache_Controller.Exclusive_Unblock         2723      0.00%      0.00%
system.ruby.L2Cache_Controller.NP.L1_GET_INSTR          472      0.00%      0.00%
system.ruby.L2Cache_Controller.NP.L1_GETS          121      0.00%      0.00%
system.ruby.L2Cache_Controller.NP.L1_GETX         1083      0.00%      0.00%
system.ruby.L2Cache_Controller.SS.L1_GET_INSTR         5078      0.00%      0.00%
system.ruby.L2Cache_Controller.SS.L1_GETS          121      0.00%      0.00%
system.ruby.L2Cache_Controller.SS.L1_GETX          106      0.00%      0.00%
system.ruby.L2Cache_Controller.SS.L1_UPGRADE           82      0.00%      0.00%
system.ruby.L2Cache_Controller.M.L1_GET_INSTR            3      0.00%      0.00%
system.ruby.L2Cache_Controller.M.L1_GETS         1053      0.00%      0.00%
system.ruby.L2Cache_Controller.M.L1_GETX           66      0.00%      0.00%
system.ruby.L2Cache_Controller.MT.L1_GETS          426      0.00%      0.00%
system.ruby.L2Cache_Controller.MT.L1_GETX          212      0.00%      0.00%
system.ruby.L2Cache_Controller.MT.L1_PUTX         1502      0.00%      0.00%
system.ruby.L2Cache_Controller.ISS.Mem_Data          121      0.00%      0.00%
system.ruby.L2Cache_Controller.IS.L1_GET_INSTR           26      0.00%      0.00%
system.ruby.L2Cache_Controller.IS.Mem_Data          472      0.00%      0.00%
system.ruby.L2Cache_Controller.IM.L1_GETX            6      0.00%      0.00%
system.ruby.L2Cache_Controller.IM.Mem_Data         1083      0.00%      0.00%
system.ruby.L2Cache_Controller.SS_MB.Exclusive_Unblock          188      0.00%      0.00%
system.ruby.L2Cache_Controller.MT_MB.L1_GETS           42      0.00%      0.00%
system.ruby.L2Cache_Controller.MT_MB.L1_GETX            2      0.00%      0.00%
system.ruby.L2Cache_Controller.MT_MB.Exclusive_Unblock         2535      0.00%      0.00%
system.ruby.L2Cache_Controller.MT_IIB.L1_GETS            3      0.00%      0.00%
system.ruby.L2Cache_Controller.MT_IIB.WB_Data           95      0.00%      0.00%
system.ruby.L2Cache_Controller.MT_IIB.WB_Data_clean            6      0.00%      0.00%
system.ruby.L2Cache_Controller.MT_IIB.Unblock          325      0.00%      0.00%
system.ruby.L2Cache_Controller.MT_IB.WB_Data          273      0.00%      0.00%
system.ruby.L2Cache_Controller.MT_IB.WB_Data_clean           52      0.00%      0.00%
system.ruby.L2Cache_Controller.MT_SB.Unblock          101      0.00%      0.00%
system.ruby.Directory_Controller.Fetch           1676      0.00%      0.00%
system.ruby.Directory_Controller.Memory_Data         1676      0.00%      0.00%
system.ruby.Directory_Controller.I.Fetch         1676      0.00%      0.00%
system.ruby.Directory_Controller.IM.Memory_Data         1676      0.00%      0.00%

---------- End Simulation Statistics   ----------
