
---------- Begin Simulation Statistics ----------
sim_seconds                                  0.017681                       # Number of seconds simulated
sim_ticks                                 17680716000                       # Number of ticks simulated
final_tick                                17680716000                       # Number of ticks from beginning of simulation (restored from checkpoints and never reset)
sim_freq                                 1000000000000                       # Frequency of simulated ticks
host_inst_rate                                 122467                       # Simulator instruction rate (inst/s)
host_op_rate                                   233965                       # Simulator op (including micro ops) rate (op/s)
host_tick_rate                              436524366                       # Simulator tick rate (ticks/s)
host_mem_usage                                2403208                       # Number of bytes of host memory used
host_seconds                                    40.50                       # Real time elapsed on the host
sim_insts                                     4960342                       # Number of instructions simulated
sim_ops                                       9476372                       # Number of ops (including micro ops) simulated
system.voltage_domain.voltage                       1                       # Voltage in Volts
system.clk_domain.clock                          1000                       # Clock period in ticks
system.mem_ctrls.bytes_read::gpu.shader_cores0.data        34944                       # Number of bytes read from this memory
system.mem_ctrls.bytes_read::gpu.shader_cores0.inst          288                       # Number of bytes read from this memory
system.mem_ctrls.bytes_read::gpu.shader_cores1.data        35584                       # Number of bytes read from this memory
system.mem_ctrls.bytes_read::gpu.shader_cores1.inst          312                       # Number of bytes read from this memory
system.mem_ctrls.bytes_read::gpu.shader_cores2.data        34944                       # Number of bytes read from this memory
system.mem_ctrls.bytes_read::gpu.shader_cores2.inst          288                       # Number of bytes read from this memory
system.mem_ctrls.bytes_read::gpu.shader_cores3.data        34944                       # Number of bytes read from this memory
system.mem_ctrls.bytes_read::gpu.shader_cores3.inst          288                       # Number of bytes read from this memory
system.mem_ctrls.bytes_read::gpu.ce             73052                       # Number of bytes read from this memory
system.mem_ctrls.bytes_read::cpu.inst        53320888                       # Number of bytes read from this memory
system.mem_ctrls.bytes_read::cpu.data         7972111                       # Number of bytes read from this memory
system.mem_ctrls.bytes_read::total           61507643                       # Number of bytes read from this memory
system.mem_ctrls.bytes_inst_read::gpu.shader_cores0.inst          288                       # Number of instructions bytes read from this memory
system.mem_ctrls.bytes_inst_read::gpu.shader_cores1.inst          312                       # Number of instructions bytes read from this memory
system.mem_ctrls.bytes_inst_read::gpu.shader_cores2.inst          288                       # Number of instructions bytes read from this memory
system.mem_ctrls.bytes_inst_read::gpu.shader_cores3.inst          288                       # Number of instructions bytes read from this memory
system.mem_ctrls.bytes_inst_read::cpu.inst     53320888                       # Number of instructions bytes read from this memory
system.mem_ctrls.bytes_inst_read::total      53322064                       # Number of instructions bytes read from this memory
system.mem_ctrls.bytes_written::gpu.shader_cores0.data        12544                       # Number of bytes written to this memory
system.mem_ctrls.bytes_written::gpu.shader_cores1.data        12672                       # Number of bytes written to this memory
system.mem_ctrls.bytes_written::gpu.shader_cores2.data        12544                       # Number of bytes written to this memory
system.mem_ctrls.bytes_written::gpu.shader_cores3.data        12544                       # Number of bytes written to this memory
system.mem_ctrls.bytes_written::gpu.ce          73052                       # Number of bytes written to this memory
system.mem_ctrls.bytes_written::cpu.data      4969927                       # Number of bytes written to this memory
system.mem_ctrls.bytes_written::total         5093283                       # Number of bytes written to this memory
system.mem_ctrls.num_reads::gpu.shader_cores0.data          422                       # Number of read requests responded to by this memory
system.mem_ctrls.num_reads::gpu.shader_cores0.inst           12                       # Number of read requests responded to by this memory
system.mem_ctrls.num_reads::gpu.shader_cores1.data          427                       # Number of read requests responded to by this memory
system.mem_ctrls.num_reads::gpu.shader_cores1.inst           13                       # Number of read requests responded to by this memory
system.mem_ctrls.num_reads::gpu.shader_cores2.data          422                       # Number of read requests responded to by this memory
system.mem_ctrls.num_reads::gpu.shader_cores2.inst           12                       # Number of read requests responded to by this memory
system.mem_ctrls.num_reads::gpu.shader_cores3.data          422                       # Number of read requests responded to by this memory
system.mem_ctrls.num_reads::gpu.shader_cores3.inst           12                       # Number of read requests responded to by this memory
system.mem_ctrls.num_reads::gpu.ce                577                       # Number of read requests responded to by this memory
system.mem_ctrls.num_reads::cpu.inst          6665111                       # Number of read requests responded to by this memory
system.mem_ctrls.num_reads::cpu.data          1297860                       # Number of read requests responded to by this memory
system.mem_ctrls.num_reads::total             7965290                       # Number of read requests responded to by this memory
system.mem_ctrls.num_writes::gpu.shader_cores0.data          314                       # Number of write requests responded to by this memory
system.mem_ctrls.num_writes::gpu.shader_cores1.data          316                       # Number of write requests responded to by this memory
system.mem_ctrls.num_writes::gpu.shader_cores2.data          314                       # Number of write requests responded to by this memory
system.mem_ctrls.num_writes::gpu.shader_cores3.data          314                       # Number of write requests responded to by this memory
system.mem_ctrls.num_writes::gpu.ce               576                       # Number of write requests responded to by this memory
system.mem_ctrls.num_writes::cpu.data          788149                       # Number of write requests responded to by this memory
system.mem_ctrls.num_writes::total             789983                       # Number of write requests responded to by this memory
system.mem_ctrls.bw_read::gpu.shader_cores0.data      1976391                       # Total read bandwidth from this memory (bytes/s)
system.mem_ctrls.bw_read::gpu.shader_cores0.inst        16289                       # Total read bandwidth from this memory (bytes/s)
system.mem_ctrls.bw_read::gpu.shader_cores1.data      2012588                       # Total read bandwidth from this memory (bytes/s)
system.mem_ctrls.bw_read::gpu.shader_cores1.inst        17646                       # Total read bandwidth from this memory (bytes/s)
system.mem_ctrls.bw_read::gpu.shader_cores2.data      1976391                       # Total read bandwidth from this memory (bytes/s)
system.mem_ctrls.bw_read::gpu.shader_cores2.inst        16289                       # Total read bandwidth from this memory (bytes/s)
system.mem_ctrls.bw_read::gpu.shader_cores3.data      1976391                       # Total read bandwidth from this memory (bytes/s)
system.mem_ctrls.bw_read::gpu.shader_cores3.inst        16289                       # Total read bandwidth from this memory (bytes/s)
system.mem_ctrls.bw_read::gpu.ce              4131733                       # Total read bandwidth from this memory (bytes/s)
system.mem_ctrls.bw_read::cpu.inst         3015765199                       # Total read bandwidth from this memory (bytes/s)
system.mem_ctrls.bw_read::cpu.data          450892996                       # Total read bandwidth from this memory (bytes/s)
system.mem_ctrls.bw_read::total            3478798200                       # Total read bandwidth from this memory (bytes/s)
system.mem_ctrls.bw_inst_read::gpu.shader_cores0.inst        16289                       # Instruction read bandwidth from this memory (bytes/s)
system.mem_ctrls.bw_inst_read::gpu.shader_cores1.inst        17646                       # Instruction read bandwidth from this memory (bytes/s)
system.mem_ctrls.bw_inst_read::gpu.shader_cores2.inst        16289                       # Instruction read bandwidth from this memory (bytes/s)
system.mem_ctrls.bw_inst_read::gpu.shader_cores3.inst        16289                       # Instruction read bandwidth from this memory (bytes/s)
system.mem_ctrls.bw_inst_read::cpu.inst    3015765199                       # Instruction read bandwidth from this memory (bytes/s)
system.mem_ctrls.bw_inst_read::total       3015831712                       # Instruction read bandwidth from this memory (bytes/s)
system.mem_ctrls.bw_write::gpu.shader_cores0.data       709474                       # Write bandwidth from this memory (bytes/s)
system.mem_ctrls.bw_write::gpu.shader_cores1.data       716713                       # Write bandwidth from this memory (bytes/s)
system.mem_ctrls.bw_write::gpu.shader_cores2.data       709474                       # Write bandwidth from this memory (bytes/s)
system.mem_ctrls.bw_write::gpu.shader_cores3.data       709474                       # Write bandwidth from this memory (bytes/s)
system.mem_ctrls.bw_write::gpu.ce             4131733                       # Write bandwidth from this memory (bytes/s)
system.mem_ctrls.bw_write::cpu.data         281093085                       # Write bandwidth from this memory (bytes/s)
system.mem_ctrls.bw_write::total            288069951                       # Write bandwidth from this memory (bytes/s)
system.mem_ctrls.bw_total::gpu.shader_cores0.data      2685864                       # Total bandwidth to/from this memory (bytes/s)
system.mem_ctrls.bw_total::gpu.shader_cores0.inst        16289                       # Total bandwidth to/from this memory (bytes/s)
system.mem_ctrls.bw_total::gpu.shader_cores1.data      2729301                       # Total bandwidth to/from this memory (bytes/s)
system.mem_ctrls.bw_total::gpu.shader_cores1.inst        17646                       # Total bandwidth to/from this memory (bytes/s)
system.mem_ctrls.bw_total::gpu.shader_cores2.data      2685864                       # Total bandwidth to/from this memory (bytes/s)
system.mem_ctrls.bw_total::gpu.shader_cores2.inst        16289                       # Total bandwidth to/from this memory (bytes/s)
system.mem_ctrls.bw_total::gpu.shader_cores3.data      2685864                       # Total bandwidth to/from this memory (bytes/s)
system.mem_ctrls.bw_total::gpu.shader_cores3.inst        16289                       # Total bandwidth to/from this memory (bytes/s)
system.mem_ctrls.bw_total::gpu.ce             8263466                       # Total bandwidth to/from this memory (bytes/s)
system.mem_ctrls.bw_total::cpu.inst        3015765199                       # Total bandwidth to/from this memory (bytes/s)
system.mem_ctrls.bw_total::cpu.data         731986080                       # Total bandwidth to/from this memory (bytes/s)
system.mem_ctrls.bw_total::total           3766868152                       # Total bandwidth to/from this memory (bytes/s)
system.ruby_clk_domain.clock                      500                       # Clock period in ticks
system.ruby.delayHist::bucket_size                256                       # delay histogram for all message
system.ruby.delayHist::max_bucket                2559                       # delay histogram for all message
system.ruby.delayHist::samples                  26721                       # delay histogram for all message
system.ruby.delayHist::mean                 22.865724                       # delay histogram for all message
system.ruby.delayHist::stdev               159.855472                       # delay histogram for all message
system.ruby.delayHist                    |       26344     98.59%     98.59% |          57      0.21%     98.80% |          53      0.20%     99.00% |          59      0.22%     99.22% |          41      0.15%     99.38% |          22      0.08%     99.46% |          26      0.10%     99.55% |         117      0.44%     99.99% |           1      0.00%    100.00% |           1      0.00%    100.00% # delay histogram for all message
system.ruby.delayHist::total                    26721                       # delay histogram for all message
system.ruby.outstanding_req_hist::bucket_size            8                      
system.ruby.outstanding_req_hist::max_bucket           79                      
system.ruby.outstanding_req_hist::samples      8755274                      
system.ruby.outstanding_req_hist::mean       1.008485                      
system.ruby.outstanding_req_hist::gmean      1.000837                      
system.ruby.outstanding_req_hist::stdev      0.652167                      
system.ruby.outstanding_req_hist         |     8753458     99.98%     99.98% |         299      0.00%     99.98% |         191      0.00%     99.98% |         374      0.00%     99.99% |          49      0.00%     99.99% |          50      0.00%     99.99% |          58      0.00%     99.99% |         134      0.00%     99.99% |         661      0.01%    100.00% |           0      0.00%    100.00%
system.ruby.outstanding_req_hist::total       8755274                      
system.ruby.latency_hist::bucket_size             256                      
system.ruby.latency_hist::max_bucket             2559                      
system.ruby.latency_hist::samples             8755273                      
system.ruby.latency_hist::mean               3.157906                      
system.ruby.latency_hist::gmean              3.007505                      
system.ruby.latency_hist::stdev             11.443200                      
system.ruby.latency_hist                 |     8754088     99.99%     99.99% |         283      0.00%     99.99% |         358      0.00%     99.99% |         254      0.00%    100.00% |          74      0.00%    100.00% |          76      0.00%    100.00% |          90      0.00%    100.00% |          38      0.00%    100.00% |          12      0.00%    100.00% |           0      0.00%    100.00%
system.ruby.latency_hist::total               8755273                      
system.ruby.hit_latency_hist::bucket_size            1                      
system.ruby.hit_latency_hist::max_bucket            9                      
system.ruby.hit_latency_hist::samples         8746484                      
system.ruby.hit_latency_hist::mean           2.999456                      
system.ruby.hit_latency_hist::gmean          2.999104                      
system.ruby.hit_latency_hist::stdev          0.032980                      
system.ruby.hit_latency_hist             |           0      0.00%      0.00% |        2379      0.03%      0.03% |           0      0.00%      0.03% |     8744105     99.97%    100.00% |           0      0.00%    100.00% |           0      0.00%    100.00% |           0      0.00%    100.00% |           0      0.00%    100.00% |           0      0.00%    100.00% |           0      0.00%    100.00%
system.ruby.hit_latency_hist::total           8746484                      
system.ruby.miss_latency_hist::bucket_size          256                      
system.ruby.miss_latency_hist::max_bucket         2559                      
system.ruby.miss_latency_hist::samples           8789                      
system.ruby.miss_latency_hist::mean        160.841051                      
system.ruby.miss_latency_hist::gmean        48.663057                      
system.ruby.miss_latency_hist::stdev       324.909650                      
system.ruby.miss_latency_hist            |        7604     86.52%     86.52% |         283      3.22%     89.74% |         358      4.07%     93.81% |         254      2.89%     96.70% |          74      0.84%     97.54% |          76      0.86%     98.41% |          90      1.02%     99.43% |          38      0.43%     99.86% |          12      0.14%    100.00% |           0      0.00%    100.00%
system.ruby.miss_latency_hist::total             8789                      
system.ruby.l1_cntrl_ce.L1Dcache.demand_hits            0                       # Number of cache demand hits
system.ruby.l1_cntrl_ce.L1Dcache.demand_misses         1153                       # Number of cache demand misses
system.ruby.l1_cntrl_ce.L1Dcache.demand_accesses         1153                       # Number of cache demand accesses
system.ruby.l1_cntrl_ce.L1Icache.demand_hits            0                       # Number of cache demand hits
system.ruby.l1_cntrl_ce.L1Icache.demand_misses            0                       # Number of cache demand misses
system.ruby.l1_cntrl_ce.L1Icache.demand_accesses            0                       # Number of cache demand accesses
system.ruby.l1_cntrl_ce.prefetcher.miss_observed            0                       # number of misses observed
system.ruby.l1_cntrl_ce.prefetcher.allocated_streams            0                       # number of streams allocated for prefetching
system.ruby.l1_cntrl_ce.prefetcher.prefetches_requested            0                       # number of prefetch requests made
system.ruby.l1_cntrl_ce.prefetcher.prefetches_accepted            0                       # number of prefetch requests accepted
system.ruby.l1_cntrl_ce.prefetcher.dropped_prefetches            0                       # number of prefetch requests dropped
system.ruby.l1_cntrl_ce.prefetcher.hits             0                       # number of prefetched blocks accessed
system.ruby.l1_cntrl_ce.prefetcher.partial_hits            0                       # number of misses observed for a block being prefetched
system.ruby.l1_cntrl_ce.prefetcher.pages_crossed            0                       # number of prefetches across pages
system.ruby.l1_cntrl_ce.prefetcher.misses_on_prefetched_blocks            0                       # number of misses for blocks that were prefetched, yet missed
system.ruby.l1_cntrl0.L1Dcache.demand_hits      2084524                       # Number of cache demand hits
system.ruby.l1_cntrl0.L1Dcache.demand_misses         1485                       # Number of cache demand misses
system.ruby.l1_cntrl0.L1Dcache.demand_accesses      2086009                       # Number of cache demand accesses
system.ruby.l1_cntrl0.L1Icache.demand_hits      6659581                       # Number of cache demand hits
system.ruby.l1_cntrl0.L1Icache.demand_misses         5530                       # Number of cache demand misses
system.ruby.l1_cntrl0.L1Icache.demand_accesses      6665111                       # Number of cache demand accesses
system.ruby.l1_cntrl0.prefetcher.miss_observed            0                       # number of misses observed
system.ruby.l1_cntrl0.prefetcher.allocated_streams            0                       # number of streams allocated for prefetching
system.ruby.l1_cntrl0.prefetcher.prefetches_requested            0                       # number of prefetch requests made
system.ruby.l1_cntrl0.prefetcher.prefetches_accepted            0                       # number of prefetch requests accepted
system.ruby.l1_cntrl0.prefetcher.dropped_prefetches            0                       # number of prefetch requests dropped
system.ruby.l1_cntrl0.prefetcher.hits               0                       # number of prefetched blocks accessed
system.ruby.l1_cntrl0.prefetcher.partial_hits            0                       # number of misses observed for a block being prefetched
system.ruby.l1_cntrl0.prefetcher.pages_crossed            0                       # number of prefetches across pages
system.ruby.l1_cntrl0.prefetcher.misses_on_prefetched_blocks            0                       # number of misses for blocks that were prefetched, yet missed
system.ruby.network.routers0.percent_links_utilized     0.103038                      
system.ruby.network.routers0.msg_count.Control::0         7015                      
system.ruby.network.routers0.msg_count.Request_Control::0          309                      
system.ruby.network.routers0.msg_count.Response_Data::1         7400                      
system.ruby.network.routers0.msg_count.Response_Control::1          955                      
system.ruby.network.routers0.msg_count.Response_Control::2         1482                      
system.ruby.network.routers0.msg_count.Writeback_Data::0          585                      
system.ruby.network.routers0.msg_count.Writeback_Control::0          237                      
system.ruby.network.routers0.msg_bytes.Control::0        56120                      
system.ruby.network.routers0.msg_bytes.Request_Control::0         2472                      
system.ruby.network.routers0.msg_bytes.Response_Data::1      1006400                      
system.ruby.network.routers0.msg_bytes.Response_Control::1         7640                      
system.ruby.network.routers0.msg_bytes.Response_Control::2        11856                      
system.ruby.network.routers0.msg_bytes.Writeback_Data::0        79560                      
system.ruby.network.routers0.msg_bytes.Writeback_Control::0         1896                      
system.ruby.l2_cntrl0.L2cache.demand_hits         6494                       # Number of cache demand hits
system.ruby.l2_cntrl0.L2cache.demand_misses         2295                       # Number of cache demand misses
system.ruby.l2_cntrl0.L2cache.demand_accesses         8789                       # Number of cache demand accesses
system.ruby.network.routers1.percent_links_utilized     0.147542                      
system.ruby.network.routers1.msg_count.Control::0        10465                      
system.ruby.network.routers1.msg_count.Request_Control::0          770                      
system.ruby.network.routers1.msg_count.Response_Data::1        10190                      
system.ruby.network.routers1.msg_count.Response_Control::1         1568                      
system.ruby.network.routers1.msg_count.Response_Control::2         3093                      
system.ruby.network.routers1.msg_count.Writeback_Data::0         1129                      
system.ruby.network.routers1.msg_count.Writeback_Control::0          373                      
system.ruby.network.routers1.msg_bytes.Control::0        83720                      
system.ruby.network.routers1.msg_bytes.Request_Control::0         6160                      
system.ruby.network.routers1.msg_bytes.Response_Data::1      1385840                      
system.ruby.network.routers1.msg_bytes.Response_Control::1        12544                      
system.ruby.network.routers1.msg_bytes.Response_Control::2        24744                      
system.ruby.network.routers1.msg_bytes.Writeback_Data::0       153544                      
system.ruby.network.routers1.msg_bytes.Writeback_Control::0         2984                      
system.ruby.dir_cntrl0.memBuffer.clk_domain.clock         2500                       # Clock period in ticks
system.ruby.dir_cntrl0.memBuffer.memReq          1676                       # Total number of memory requests
system.ruby.dir_cntrl0.memBuffer.memRead         1676                       # Number of memory reads
system.ruby.dir_cntrl0.memBuffer.memRefresh        12695                       # Number of memory refreshes
system.ruby.dir_cntrl0.memBuffer.memWaitCycles          439                       # Delay stalled at the head of the bank queue
system.ruby.dir_cntrl0.memBuffer.memInputQ           19                       # Delay in the input queue
system.ruby.dir_cntrl0.memBuffer.memBankQ            2                       # Delay behind the head of the bank queue
system.ruby.dir_cntrl0.memBuffer.totalStalls          460                       # Total number of stall cycles
system.ruby.dir_cntrl0.memBuffer.stallsPerReq     0.274463                       # Expected number of stall cycles per request
system.ruby.dir_cntrl0.memBuffer.memBankBusy          192                       # memory stalls due to busy bank
system.ruby.dir_cntrl0.memBuffer.memBusBusy          128                       # memory stalls due to busy bus
system.ruby.dir_cntrl0.memBuffer.memDataBusBusy           60                       # memory stalls due to read read turnaround
system.ruby.dir_cntrl0.memBuffer.memArbWait           59                       # memory stalls due to arbitration
system.ruby.dir_cntrl0.memBuffer.memBankCount |          49      2.92%      2.92% |          54      3.22%      6.15% |          54      3.22%      9.37% |          56      3.34%     12.71% |          51      3.04%     15.75% |          50      2.98%     18.74% |          47      2.80%     21.54% |          50      2.98%     24.52% |          50      2.98%     27.51% |          49      2.92%     30.43% |          57      3.40%     33.83% |          50      2.98%     36.81% |          47      2.80%     39.62% |          50      2.98%     42.60% |          55      3.28%     45.88% |          54      3.22%     49.11% |          60      3.58%     52.68% |          62      3.70%     56.38% |          50      2.98%     59.37% |          54      3.22%     62.59% |          42      2.51%     65.10% |          44      2.63%     67.72% |          52      3.10%     70.82% |          59      3.52%     74.34% |          61      3.64%     77.98% |          56      3.34%     81.32% |          54      3.22%     84.55% |          50      2.98%     87.53% |          48      2.86%     90.39% |          52      3.10%     93.50% |          56      3.34%     96.84% |          53      3.16%    100.00% # Number of accesses per bank
system.ruby.dir_cntrl0.memBuffer.memBankCount::total         1676                       # Number of accesses per bank
system.ruby.network.routers2.percent_links_utilized     0.021328                      
system.ruby.network.routers2.msg_count.Control::0         1676                      
system.ruby.network.routers2.msg_count.Response_Data::1         1676                      
system.ruby.network.routers2.msg_bytes.Control::0        13408                      
system.ruby.network.routers2.msg_bytes.Response_Data::1       227936                      
system.ruby.l1_cntrl_sp00.L1Dcache.demand_hits          597                       # Number of cache demand hits
system.ruby.l1_cntrl_sp00.L1Dcache.demand_misses          139                       # Number of cache demand misses
system.ruby.l1_cntrl_sp00.L1Dcache.demand_accesses          736                       # Number of cache demand accesses
system.ruby.l1_cntrl_sp00.L1Icache.demand_hits            0                       # Number of cache demand hits
system.ruby.l1_cntrl_sp00.L1Icache.demand_misses           12                       # Number of cache demand misses
system.ruby.l1_cntrl_sp00.L1Icache.demand_accesses           12                       # Number of cache demand accesses
system.ruby.l1_cntrl_sp00.prefetcher.miss_observed            0                       # number of misses observed
system.ruby.l1_cntrl_sp00.prefetcher.allocated_streams            0                       # number of streams allocated for prefetching
system.ruby.l1_cntrl_sp00.prefetcher.prefetches_requested            0                       # number of prefetch requests made
system.ruby.l1_cntrl_sp00.prefetcher.prefetches_accepted            0                       # number of prefetch requests accepted
system.ruby.l1_cntrl_sp00.prefetcher.dropped_prefetches            0                       # number of prefetch requests dropped
system.ruby.l1_cntrl_sp00.prefetcher.hits            0                       # number of prefetched blocks accessed
system.ruby.l1_cntrl_sp00.prefetcher.partial_hits            0                       # number of misses observed for a block being prefetched
system.ruby.l1_cntrl_sp00.prefetcher.pages_crossed            0                       # number of prefetches across pages
system.ruby.l1_cntrl_sp00.prefetcher.misses_on_prefetched_blocks            0                       # number of misses for blocks that were prefetched, yet missed
system.ruby.network.routers3.percent_links_utilized     0.003493                      
system.ruby.network.routers3.msg_count.Control::0          151                      
system.ruby.network.routers3.msg_count.Request_Control::0           95                      
system.ruby.network.routers3.msg_count.Response_Data::1          265                      
system.ruby.network.routers3.msg_count.Response_Control::1           52                      
system.ruby.network.routers3.msg_count.Response_Control::2          138                      
system.ruby.network.routers3.msg_bytes.Control::0         1208                      
system.ruby.network.routers3.msg_bytes.Request_Control::0          760                      
system.ruby.network.routers3.msg_bytes.Response_Data::1        36040                      
system.ruby.network.routers3.msg_bytes.Response_Control::1          416                      
system.ruby.network.routers3.msg_bytes.Response_Control::2         1104                      
system.ruby.l1_cntrl_sp01.L1Dcache.demand_hits          591                       # Number of cache demand hits
system.ruby.l1_cntrl_sp01.L1Dcache.demand_misses          152                       # Number of cache demand misses
system.ruby.l1_cntrl_sp01.L1Dcache.demand_accesses          743                       # Number of cache demand accesses
system.ruby.l1_cntrl_sp01.L1Icache.demand_hits            0                       # Number of cache demand hits
system.ruby.l1_cntrl_sp01.L1Icache.demand_misses           13                       # Number of cache demand misses
system.ruby.l1_cntrl_sp01.L1Icache.demand_accesses           13                       # Number of cache demand accesses
system.ruby.l1_cntrl_sp01.prefetcher.miss_observed            0                       # number of misses observed
system.ruby.l1_cntrl_sp01.prefetcher.allocated_streams            0                       # number of streams allocated for prefetching
system.ruby.l1_cntrl_sp01.prefetcher.prefetches_requested            0                       # number of prefetch requests made
system.ruby.l1_cntrl_sp01.prefetcher.prefetches_accepted            0                       # number of prefetch requests accepted
system.ruby.l1_cntrl_sp01.prefetcher.dropped_prefetches            0                       # number of prefetch requests dropped
system.ruby.l1_cntrl_sp01.prefetcher.hits            0                       # number of prefetched blocks accessed
system.ruby.l1_cntrl_sp01.prefetcher.partial_hits            0                       # number of misses observed for a block being prefetched
system.ruby.l1_cntrl_sp01.prefetcher.pages_crossed            0                       # number of prefetches across pages
system.ruby.l1_cntrl_sp01.prefetcher.misses_on_prefetched_blocks            0                       # number of misses for blocks that were prefetched, yet missed
system.ruby.network.routers4.percent_links_utilized     0.004002                      
system.ruby.network.routers4.msg_count.Control::0          165                      
system.ruby.network.routers4.msg_count.Request_Control::0          118                      
system.ruby.network.routers4.msg_count.Response_Data::1          305                      
system.ruby.network.routers4.msg_count.Response_Control::1           42                      
system.ruby.network.routers4.msg_count.Response_Control::2          151                      
system.ruby.network.routers4.msg_bytes.Control::0         1320                      
system.ruby.network.routers4.msg_bytes.Request_Control::0          944                      
system.ruby.network.routers4.msg_bytes.Response_Data::1        41480                      
system.ruby.network.routers4.msg_bytes.Response_Control::1          336                      
system.ruby.network.routers4.msg_bytes.Response_Control::2         1208                      
system.ruby.l1_cntrl_sp02.L1Dcache.demand_hits          607                       # Number of cache demand hits
system.ruby.l1_cntrl_sp02.L1Dcache.demand_misses          129                       # Number of cache demand misses
system.ruby.l1_cntrl_sp02.L1Dcache.demand_accesses          736                       # Number of cache demand accesses
system.ruby.l1_cntrl_sp02.L1Icache.demand_hits            0                       # Number of cache demand hits
system.ruby.l1_cntrl_sp02.L1Icache.demand_misses           12                       # Number of cache demand misses
system.ruby.l1_cntrl_sp02.L1Icache.demand_accesses           12                       # Number of cache demand accesses
system.ruby.l1_cntrl_sp02.prefetcher.miss_observed            0                       # number of misses observed
system.ruby.l1_cntrl_sp02.prefetcher.allocated_streams            0                       # number of streams allocated for prefetching
system.ruby.l1_cntrl_sp02.prefetcher.prefetches_requested            0                       # number of prefetch requests made
system.ruby.l1_cntrl_sp02.prefetcher.prefetches_accepted            0                       # number of prefetch requests accepted
system.ruby.l1_cntrl_sp02.prefetcher.dropped_prefetches            0                       # number of prefetch requests dropped
system.ruby.l1_cntrl_sp02.prefetcher.hits            0                       # number of prefetched blocks accessed
system.ruby.l1_cntrl_sp02.prefetcher.partial_hits            0                       # number of misses observed for a block being prefetched
system.ruby.l1_cntrl_sp02.prefetcher.pages_crossed            0                       # number of prefetches across pages
system.ruby.l1_cntrl_sp02.prefetcher.misses_on_prefetched_blocks            0                       # number of misses for blocks that were prefetched, yet missed
system.ruby.network.routers5.percent_links_utilized     0.003420                      
system.ruby.network.routers5.msg_count.Control::0          141                      
system.ruby.network.routers5.msg_count.Request_Control::0           92                      
system.ruby.network.routers5.msg_count.Response_Data::1          262                      
system.ruby.network.routers5.msg_count.Response_Control::1           24                      
system.ruby.network.routers5.msg_count.Response_Control::2          127                      
system.ruby.network.routers5.msg_bytes.Control::0         1128                      
system.ruby.network.routers5.msg_bytes.Request_Control::0          736                      
system.ruby.network.routers5.msg_bytes.Response_Data::1        35632                      
system.ruby.network.routers5.msg_bytes.Response_Control::1          192                      
system.ruby.network.routers5.msg_bytes.Response_Control::2         1016                      
system.ruby.l1_cntrl_sp03.L1Dcache.demand_hits          584                       # Number of cache demand hits
system.ruby.l1_cntrl_sp03.L1Dcache.demand_misses          152                       # Number of cache demand misses
system.ruby.l1_cntrl_sp03.L1Dcache.demand_accesses          736                       # Number of cache demand accesses
system.ruby.l1_cntrl_sp03.L1Icache.demand_hits            0                       # Number of cache demand hits
system.ruby.l1_cntrl_sp03.L1Icache.demand_misses           12                       # Number of cache demand misses
system.ruby.l1_cntrl_sp03.L1Icache.demand_accesses           12                       # Number of cache demand accesses
system.ruby.l1_cntrl_sp03.prefetcher.miss_observed            0                       # number of misses observed
system.ruby.l1_cntrl_sp03.prefetcher.allocated_streams            0                       # number of streams allocated for prefetching
system.ruby.l1_cntrl_sp03.prefetcher.prefetches_requested            0                       # number of prefetch requests made
system.ruby.l1_cntrl_sp03.prefetcher.prefetches_accepted            0                       # number of prefetch requests accepted
system.ruby.l1_cntrl_sp03.prefetcher.dropped_prefetches            0                       # number of prefetch requests dropped
system.ruby.l1_cntrl_sp03.prefetcher.hits            0                       # number of prefetched blocks accessed
system.ruby.l1_cntrl_sp03.prefetcher.partial_hits            0                       # number of misses observed for a block being prefetched
system.ruby.l1_cntrl_sp03.prefetcher.pages_crossed            0                       # number of prefetches across pages
system.ruby.l1_cntrl_sp03.prefetcher.misses_on_prefetched_blocks            0                       # number of misses for blocks that were prefetched, yet missed
system.ruby.network.routers6.percent_links_utilized     0.003895                      
system.ruby.network.routers6.msg_count.Control::0          164                      
system.ruby.network.routers6.msg_count.Request_Control::0          114                      
system.ruby.network.routers6.msg_count.Response_Data::1          296                      
system.ruby.network.routers6.msg_count.Response_Control::1           49                      
system.ruby.network.routers6.msg_count.Response_Control::2          151                      
system.ruby.network.routers6.msg_bytes.Control::0         1312                      
system.ruby.network.routers6.msg_bytes.Request_Control::0          912                      
system.ruby.network.routers6.msg_bytes.Response_Data::1        40256                      
system.ruby.network.routers6.msg_bytes.Response_Control::1          392                      
system.ruby.network.routers6.msg_bytes.Response_Control::2         1208                      
system.ruby.l1_pw_cntrl.L1Dcache.demand_hits            0                       # Number of cache demand hits
system.ruby.l1_pw_cntrl.L1Dcache.demand_misses            0                       # Number of cache demand misses
system.ruby.l1_pw_cntrl.L1Dcache.demand_accesses            0                       # Number of cache demand accesses
system.ruby.l1_pw_cntrl.L1Icache.demand_hits            0                       # Number of cache demand hits
system.ruby.l1_pw_cntrl.L1Icache.demand_misses            0                       # Number of cache demand misses
system.ruby.l1_pw_cntrl.L1Icache.demand_accesses            0                       # Number of cache demand accesses
system.ruby.l1_pw_cntrl.prefetcher.miss_observed            0                       # number of misses observed
system.ruby.l1_pw_cntrl.prefetcher.allocated_streams            0                       # number of streams allocated for prefetching
system.ruby.l1_pw_cntrl.prefetcher.prefetches_requested            0                       # number of prefetch requests made
system.ruby.l1_pw_cntrl.prefetcher.prefetches_accepted            0                       # number of prefetch requests accepted
system.ruby.l1_pw_cntrl.prefetcher.dropped_prefetches            0                       # number of prefetch requests dropped
system.ruby.l1_pw_cntrl.prefetcher.hits             0                       # number of prefetched blocks accessed
system.ruby.l1_pw_cntrl.prefetcher.partial_hits            0                       # number of misses observed for a block being prefetched
system.ruby.l1_pw_cntrl.prefetcher.pages_crossed            0                       # number of prefetches across pages
system.ruby.l1_pw_cntrl.prefetcher.misses_on_prefetched_blocks            0                       # number of misses for blocks that were prefetched, yet missed
system.ruby.network.routers7.percent_links_utilized            0                      
system.ruby.network.routers8.percent_links_utilized     0.023253                      
system.ruby.network.routers8.msg_count.Control::0         1153                      
system.ruby.network.routers8.msg_count.Request_Control::0           51                      
system.ruby.network.routers8.msg_count.Response_Data::1         1203                      
system.ruby.network.routers8.msg_count.Response_Control::1          808                      
system.ruby.network.routers8.msg_count.Response_Control::2         1044                      
system.ruby.network.routers8.msg_count.Writeback_Data::0          544                      
system.ruby.network.routers8.msg_count.Writeback_Control::0          136                      
system.ruby.network.routers8.msg_bytes.Control::0         9224                      
system.ruby.network.routers8.msg_bytes.Request_Control::0          408                      
system.ruby.network.routers8.msg_bytes.Response_Data::1       163608                      
system.ruby.network.routers8.msg_bytes.Response_Control::1         6464                      
system.ruby.network.routers8.msg_bytes.Response_Control::2         8352                      
system.ruby.network.routers8.msg_bytes.Writeback_Data::0        73984                      
system.ruby.network.routers8.msg_bytes.Writeback_Control::0         1088                      
system.ruby.network.routers9.percent_links_utilized     0.034470                      
system.ruby.network.routers9.msg_count.Control::0        10465                      
system.ruby.network.routers9.msg_count.Request_Control::0          779                      
system.ruby.network.routers9.msg_count.Response_Data::1        10809                      
system.ruby.network.routers9.msg_count.Response_Control::1         1749                      
system.ruby.network.routers9.msg_count.Response_Control::2         3093                      
system.ruby.network.routers9.msg_count.Writeback_Data::0         1129                      
system.ruby.network.routers9.msg_count.Writeback_Control::0          373                      
system.ruby.network.routers9.msg_bytes.Control::0        83720                      
system.ruby.network.routers9.msg_bytes.Request_Control::0         6232                      
system.ruby.network.routers9.msg_bytes.Response_Data::1      1470024                      
system.ruby.network.routers9.msg_bytes.Response_Control::1        13992                      
system.ruby.network.routers9.msg_bytes.Response_Control::2        24744                      
system.ruby.network.routers9.msg_bytes.Writeback_Data::0       153544                      
system.ruby.network.routers9.msg_bytes.Writeback_Control::0         2984                      
system.ruby.network.msg_count.Control           31395                      
system.ruby.network.msg_count.Request_Control         2328                      
system.ruby.network.msg_count.Response_Data        32406                      
system.ruby.network.msg_count.Response_Control        14526                      
system.ruby.network.msg_count.Writeback_Data         3387                      
system.ruby.network.msg_count.Writeback_Control         1119                      
system.ruby.network.msg_byte.Control           251160                      
system.ruby.network.msg_byte.Request_Control        18624                      
system.ruby.network.msg_byte.Response_Data      4407216                      
system.ruby.network.msg_byte.Response_Control       116208                      
system.ruby.network.msg_byte.Writeback_Data       460632                      
system.ruby.network.msg_byte.Writeback_Control         8952                      
system.ruby.memctrl_clk_domain.clock             1500                       # Clock period in ticks
system.cpu_voltage_domain.voltage                   1                       # Voltage in Volts
system.gpu.voltage_domain.voltage                   1                       # Voltage in Volts
system.gpu.clk_domain.clock                      1429                       # Clock period in ticks
system.gpu.shader_mmu.numPagefaults                 0                       # Number of Pagefaults
system.gpu.shader_mmu.numPagewalks                168                       # Number of Pagewalks
system.gpu.shader_mmu.totalRequests               168                       # Total number of requests
system.gpu.shader_mmu.retryFailures                 0                       # Times the retry walk after a pagefault failed
system.gpu.shader_mmu.l2hits                        0                       # Hits in the shared L2
system.gpu.shader_mmu.prefetchHits                  0                       # Number of prefetch hits
system.gpu.shader_mmu.numPrefetches                 0                       # Number of prefetchs
system.gpu.shader_mmu.prefetchFaults                0                       # Number of faults caused by prefetches
system.gpu.shader_mmu.pagefaultLatency::samples            0                       # Latency to complete the pagefault
system.gpu.shader_mmu.pagefaultLatency::mean          nan                       # Latency to complete the pagefault
system.gpu.shader_mmu.pagefaultLatency::gmean          nan                       # Latency to complete the pagefault
system.gpu.shader_mmu.pagefaultLatency::stdev          nan                       # Latency to complete the pagefault
system.gpu.shader_mmu.pagefaultLatency::0            0                       # Latency to complete the pagefault
system.gpu.shader_mmu.pagefaultLatency::1            0                       # Latency to complete the pagefault
system.gpu.shader_mmu.pagefaultLatency::2            0                       # Latency to complete the pagefault
system.gpu.shader_mmu.pagefaultLatency::3            0                       # Latency to complete the pagefault
system.gpu.shader_mmu.pagefaultLatency::4            0                       # Latency to complete the pagefault
system.gpu.shader_mmu.pagefaultLatency::5            0                       # Latency to complete the pagefault
system.gpu.shader_mmu.pagefaultLatency::6            0                       # Latency to complete the pagefault
system.gpu.shader_mmu.pagefaultLatency::7            0                       # Latency to complete the pagefault
system.gpu.shader_mmu.pagefaultLatency::8            0                       # Latency to complete the pagefault
system.gpu.shader_mmu.pagefaultLatency::9            0                       # Latency to complete the pagefault
system.gpu.shader_mmu.pagefaultLatency::10            0                       # Latency to complete the pagefault
system.gpu.shader_mmu.pagefaultLatency::11            0                       # Latency to complete the pagefault
system.gpu.shader_mmu.pagefaultLatency::12            0                       # Latency to complete the pagefault
system.gpu.shader_mmu.pagefaultLatency::13            0                       # Latency to complete the pagefault
system.gpu.shader_mmu.pagefaultLatency::14            0                       # Latency to complete the pagefault
system.gpu.shader_mmu.pagefaultLatency::15            0                       # Latency to complete the pagefault
system.gpu.shader_mmu.pagefaultLatency::16            0                       # Latency to complete the pagefault
system.gpu.shader_mmu.pagefaultLatency::17            0                       # Latency to complete the pagefault
system.gpu.shader_mmu.pagefaultLatency::18            0                       # Latency to complete the pagefault
system.gpu.shader_mmu.pagefaultLatency::19            0                       # Latency to complete the pagefault
system.gpu.shader_mmu.pagefaultLatency::20            0                       # Latency to complete the pagefault
system.gpu.shader_mmu.pagefaultLatency::21            0                       # Latency to complete the pagefault
system.gpu.shader_mmu.pagefaultLatency::22            0                       # Latency to complete the pagefault
system.gpu.shader_mmu.pagefaultLatency::23            0                       # Latency to complete the pagefault
system.gpu.shader_mmu.pagefaultLatency::24            0                       # Latency to complete the pagefault
system.gpu.shader_mmu.pagefaultLatency::25            0                       # Latency to complete the pagefault
system.gpu.shader_mmu.pagefaultLatency::26            0                       # Latency to complete the pagefault
system.gpu.shader_mmu.pagefaultLatency::27            0                       # Latency to complete the pagefault
system.gpu.shader_mmu.pagefaultLatency::28            0                       # Latency to complete the pagefault
system.gpu.shader_mmu.pagefaultLatency::29            0                       # Latency to complete the pagefault
system.gpu.shader_mmu.pagefaultLatency::30            0                       # Latency to complete the pagefault
system.gpu.shader_mmu.pagefaultLatency::31            0                       # Latency to complete the pagefault
system.gpu.shader_mmu.pagefaultLatency::total            0                       # Latency to complete the pagefault
system.gpu.shader_mmu.concurrentWalks::samples          168                       # Number of outstanding walks
system.gpu.shader_mmu.concurrentWalks::mean            0                       # Number of outstanding walks
system.gpu.shader_mmu.concurrentWalks::gmean            0                       # Number of outstanding walks
system.gpu.shader_mmu.concurrentWalks::stdev            0                       # Number of outstanding walks
system.gpu.shader_mmu.concurrentWalks::0          168    100.00%    100.00% # Number of outstanding walks
system.gpu.shader_mmu.concurrentWalks::1            0      0.00%    100.00% # Number of outstanding walks
system.gpu.shader_mmu.concurrentWalks::2            0      0.00%    100.00% # Number of outstanding walks
system.gpu.shader_mmu.concurrentWalks::3            0      0.00%    100.00% # Number of outstanding walks
system.gpu.shader_mmu.concurrentWalks::4            0      0.00%    100.00% # Number of outstanding walks
system.gpu.shader_mmu.concurrentWalks::5            0      0.00%    100.00% # Number of outstanding walks
system.gpu.shader_mmu.concurrentWalks::6            0      0.00%    100.00% # Number of outstanding walks
system.gpu.shader_mmu.concurrentWalks::7            0      0.00%    100.00% # Number of outstanding walks
system.gpu.shader_mmu.concurrentWalks::8            0      0.00%    100.00% # Number of outstanding walks
system.gpu.shader_mmu.concurrentWalks::9            0      0.00%    100.00% # Number of outstanding walks
system.gpu.shader_mmu.concurrentWalks::10            0      0.00%    100.00% # Number of outstanding walks
system.gpu.shader_mmu.concurrentWalks::11            0      0.00%    100.00% # Number of outstanding walks
system.gpu.shader_mmu.concurrentWalks::12            0      0.00%    100.00% # Number of outstanding walks
system.gpu.shader_mmu.concurrentWalks::13            0      0.00%    100.00% # Number of outstanding walks
system.gpu.shader_mmu.concurrentWalks::14            0      0.00%    100.00% # Number of outstanding walks
system.gpu.shader_mmu.concurrentWalks::15            0      0.00%    100.00% # Number of outstanding walks
system.gpu.shader_mmu.concurrentWalks::total          168                       # Number of outstanding walks
system.gpu.shader_mmu.pagewalkLatency::samples          168                       # Latency to complete the pagewalk
system.gpu.shader_mmu.pagewalkLatency::mean            0                       # Latency to complete the pagewalk
system.gpu.shader_mmu.pagewalkLatency::gmean            0                       # Latency to complete the pagewalk
system.gpu.shader_mmu.pagewalkLatency::stdev            0                       # Latency to complete the pagewalk
system.gpu.shader_mmu.pagewalkLatency::0          168    100.00%    100.00% # Latency to complete the pagewalk
system.gpu.shader_mmu.pagewalkLatency::1            0      0.00%    100.00% # Latency to complete the pagewalk
system.gpu.shader_mmu.pagewalkLatency::2            0      0.00%    100.00% # Latency to complete the pagewalk
system.gpu.shader_mmu.pagewalkLatency::3            0      0.00%    100.00% # Latency to complete the pagewalk
system.gpu.shader_mmu.pagewalkLatency::4            0      0.00%    100.00% # Latency to complete the pagewalk
system.gpu.shader_mmu.pagewalkLatency::5            0      0.00%    100.00% # Latency to complete the pagewalk
system.gpu.shader_mmu.pagewalkLatency::6            0      0.00%    100.00% # Latency to complete the pagewalk
system.gpu.shader_mmu.pagewalkLatency::7            0      0.00%    100.00% # Latency to complete the pagewalk
system.gpu.shader_mmu.pagewalkLatency::8            0      0.00%    100.00% # Latency to complete the pagewalk
system.gpu.shader_mmu.pagewalkLatency::9            0      0.00%    100.00% # Latency to complete the pagewalk
system.gpu.shader_mmu.pagewalkLatency::10            0      0.00%    100.00% # Latency to complete the pagewalk
system.gpu.shader_mmu.pagewalkLatency::11            0      0.00%    100.00% # Latency to complete the pagewalk
system.gpu.shader_mmu.pagewalkLatency::12            0      0.00%    100.00% # Latency to complete the pagewalk
system.gpu.shader_mmu.pagewalkLatency::13            0      0.00%    100.00% # Latency to complete the pagewalk
system.gpu.shader_mmu.pagewalkLatency::14            0      0.00%    100.00% # Latency to complete the pagewalk
system.gpu.shader_mmu.pagewalkLatency::15            0      0.00%    100.00% # Latency to complete the pagewalk
system.gpu.shader_mmu.pagewalkLatency::16            0      0.00%    100.00% # Latency to complete the pagewalk
system.gpu.shader_mmu.pagewalkLatency::17            0      0.00%    100.00% # Latency to complete the pagewalk
system.gpu.shader_mmu.pagewalkLatency::18            0      0.00%    100.00% # Latency to complete the pagewalk
system.gpu.shader_mmu.pagewalkLatency::19            0      0.00%    100.00% # Latency to complete the pagewalk
system.gpu.shader_mmu.pagewalkLatency::20            0      0.00%    100.00% # Latency to complete the pagewalk
system.gpu.shader_mmu.pagewalkLatency::21            0      0.00%    100.00% # Latency to complete the pagewalk
system.gpu.shader_mmu.pagewalkLatency::22            0      0.00%    100.00% # Latency to complete the pagewalk
system.gpu.shader_mmu.pagewalkLatency::23            0      0.00%    100.00% # Latency to complete the pagewalk
system.gpu.shader_mmu.pagewalkLatency::24            0      0.00%    100.00% # Latency to complete the pagewalk
system.gpu.shader_mmu.pagewalkLatency::25            0      0.00%    100.00% # Latency to complete the pagewalk
system.gpu.shader_mmu.pagewalkLatency::26            0      0.00%    100.00% # Latency to complete the pagewalk
system.gpu.shader_mmu.pagewalkLatency::27            0      0.00%    100.00% # Latency to complete the pagewalk
system.gpu.shader_mmu.pagewalkLatency::28            0      0.00%    100.00% # Latency to complete the pagewalk
system.gpu.shader_mmu.pagewalkLatency::29            0      0.00%    100.00% # Latency to complete the pagewalk
system.gpu.shader_mmu.pagewalkLatency::30            0      0.00%    100.00% # Latency to complete the pagewalk
system.gpu.shader_mmu.pagewalkLatency::31            0      0.00%    100.00% # Latency to complete the pagewalk
system.gpu.shader_mmu.pagewalkLatency::total          168                       # Latency to complete the pagewalk
system.gpu.kernels_completed                        2                       # Number of kernels completed
system.gpu.shader_cores0.itb.hits                   0                       # Number of hits in this TLB
system.gpu.shader_cores0.itb.misses                 0                       # Number of misses in this TLB
system.gpu.shader_cores0.itb.hitRate              nan                       # Hit rate for this TLB
system.gpu.shader_cores0.local_loads                0                       # Number of loads from local space
system.gpu.shader_cores0.local_stores               0                       # Number of stores to local space
system.gpu.shader_cores0.shared_loads            5056                       # Number of loads from shared space
system.gpu.shader_cores0.shared_stores           3072                       # Number of stores to shared space
system.gpu.shader_cores0.param_kernel_loads         7296                       # Number of loads from kernel parameter space
system.gpu.shader_cores0.param_local_loads            0                       # Number of loads from local parameter space
system.gpu.shader_cores0.param_local_stores            0                       # Number of stores to local parameter space
system.gpu.shader_cores0.const_loads                0                       # Number of loads from constant space
system.gpu.shader_cores0.tex_loads                  0                       # Number of loads from texture space
system.gpu.shader_cores0.global_loads            8256                       # Number of loads from global space
system.gpu.shader_cores0.global_stores           3136                       # Number of stores to global space
system.gpu.shader_cores0.surf_loads                 0                       # Number of loads from surface space
system.gpu.shader_cores0.generic_loads              0                       # Number of loads from generic spaces (global, shared, local)
system.gpu.shader_cores0.generic_stores             0                       # Number of stores to generic spaces (global, shared, local)
system.gpu.shader_cores0.inst_cache_requests           12                       # Number of instruction cache requests sent
system.gpu.shader_cores0.inst_cache_retries            0                       # Number of instruction cache retries
system.gpu.shader_cores0.inst_counts::0             0                       # Inst counts: 1: ALU, 2: MAD, 3: CTRL, 4: SFU, 5: MEM, 6: TEX, 7: NOP
system.gpu.shader_cores0.inst_counts::1        130176                       # Inst counts: 1: ALU, 2: MAD, 3: CTRL, 4: SFU, 5: MEM, 6: TEX, 7: NOP
system.gpu.shader_cores0.inst_counts::2          2048                       # Inst counts: 1: ALU, 2: MAD, 3: CTRL, 4: SFU, 5: MEM, 6: TEX, 7: NOP
system.gpu.shader_cores0.inst_counts::3         20416                       # Inst counts: 1: ALU, 2: MAD, 3: CTRL, 4: SFU, 5: MEM, 6: TEX, 7: NOP
system.gpu.shader_cores0.inst_counts::4          6144                       # Inst counts: 1: ALU, 2: MAD, 3: CTRL, 4: SFU, 5: MEM, 6: TEX, 7: NOP
system.gpu.shader_cores0.inst_counts::5         26816                       # Inst counts: 1: ALU, 2: MAD, 3: CTRL, 4: SFU, 5: MEM, 6: TEX, 7: NOP
system.gpu.shader_cores0.inst_counts::6             0                       # Inst counts: 1: ALU, 2: MAD, 3: CTRL, 4: SFU, 5: MEM, 6: TEX, 7: NOP
system.gpu.shader_cores0.inst_counts::7             0                       # Inst counts: 1: ALU, 2: MAD, 3: CTRL, 4: SFU, 5: MEM, 6: TEX, 7: NOP
system.gpu.shader_cores0.activeCycles            7282                       # Number of cycles this shader was executing a CTA
system.gpu.shader_cores0.notStalledCycles         5792                       # Number of cycles this shader was actually executing at least one instance
system.gpu.shader_cores0.instInstances         185600                       # Total instructions executed by all PEs in the core
system.gpu.shader_cores0.instPerCycle       25.487503                       # Instruction instances per cycle
system.gpu.shader_cores0.kernels_completed            2                       # Number of kernels completed
system.gpu.shader_cores0.lsq.data_tlb.hits            0                       # Number of hits in this TLB
system.gpu.shader_cores0.lsq.data_tlb.misses            0                       # Number of misses in this TLB
system.gpu.shader_cores0.lsq.data_tlb.hitRate          nan                       # Hit rate for this TLB
system.gpu.shader_cores0.lsq.warpInstBufActive::samples      8827954                       # Histogram of number of active warp inst buffers at a given time
system.gpu.shader_cores0.lsq.warpInstBufActive::mean     4.173268                       # Histogram of number of active warp inst buffers at a given time
system.gpu.shader_cores0.lsq.warpInstBufActive::gmean          nan                       # Histogram of number of active warp inst buffers at a given time
system.gpu.shader_cores0.lsq.warpInstBufActive::stdev     7.464454                       # Histogram of number of active warp inst buffers at a given time
system.gpu.shader_cores0.lsq.warpInstBufActive::0      4711479     53.37%     53.37% # Histogram of number of active warp inst buffers at a given time
system.gpu.shader_cores0.lsq.warpInstBufActive::1       705088      7.99%     61.36% # Histogram of number of active warp inst buffers at a given time
system.gpu.shader_cores0.lsq.warpInstBufActive::2       514770      5.83%     67.19% # Histogram of number of active warp inst buffers at a given time
system.gpu.shader_cores0.lsq.warpInstBufActive::3       319579      3.62%     70.81% # Histogram of number of active warp inst buffers at a given time
system.gpu.shader_cores0.lsq.warpInstBufActive::4       233894      2.65%     73.46% # Histogram of number of active warp inst buffers at a given time
system.gpu.shader_cores0.lsq.warpInstBufActive::5       173750      1.97%     75.43% # Histogram of number of active warp inst buffers at a given time
system.gpu.shader_cores0.lsq.warpInstBufActive::6       204769      2.32%     77.75% # Histogram of number of active warp inst buffers at a given time
system.gpu.shader_cores0.lsq.warpInstBufActive::7       174123      1.97%     79.72% # Histogram of number of active warp inst buffers at a given time
system.gpu.shader_cores0.lsq.warpInstBufActive::8       178995      2.03%     81.75% # Histogram of number of active warp inst buffers at a given time
system.gpu.shader_cores0.lsq.warpInstBufActive::9       145000      1.64%     83.39% # Histogram of number of active warp inst buffers at a given time
system.gpu.shader_cores0.lsq.warpInstBufActive::10       157239      1.78%     85.17% # Histogram of number of active warp inst buffers at a given time
system.gpu.shader_cores0.lsq.warpInstBufActive::11       136476      1.55%     86.72% # Histogram of number of active warp inst buffers at a given time
system.gpu.shader_cores0.lsq.warpInstBufActive::12        39276      0.44%     87.16% # Histogram of number of active warp inst buffers at a given time
system.gpu.shader_cores0.lsq.warpInstBufActive::13        26146      0.30%     87.46% # Histogram of number of active warp inst buffers at a given time
system.gpu.shader_cores0.lsq.warpInstBufActive::14        37919      0.43%     87.89% # Histogram of number of active warp inst buffers at a given time
system.gpu.shader_cores0.lsq.warpInstBufActive::15       192913      2.19%     90.07% # Histogram of number of active warp inst buffers at a given time
system.gpu.shader_cores0.lsq.warpInstBufActive::16       355519      4.03%     94.10% # Histogram of number of active warp inst buffers at a given time
system.gpu.shader_cores0.lsq.warpInstBufActive::17        37696      0.43%     94.53% # Histogram of number of active warp inst buffers at a given time
system.gpu.shader_cores0.lsq.warpInstBufActive::18        24334      0.28%     94.80% # Histogram of number of active warp inst buffers at a given time
system.gpu.shader_cores0.lsq.warpInstBufActive::19        20458      0.23%     95.03% # Histogram of number of active warp inst buffers at a given time
system.gpu.shader_cores0.lsq.warpInstBufActive::20        25626      0.29%     95.32% # Histogram of number of active warp inst buffers at a given time
system.gpu.shader_cores0.lsq.warpInstBufActive::21        17970      0.20%     95.53% # Histogram of number of active warp inst buffers at a given time
system.gpu.shader_cores0.lsq.warpInstBufActive::22        22822      0.26%     95.78% # Histogram of number of active warp inst buffers at a given time
system.gpu.shader_cores0.lsq.warpInstBufActive::23        28668      0.32%     96.11% # Histogram of number of active warp inst buffers at a given time
system.gpu.shader_cores0.lsq.warpInstBufActive::24        18667      0.21%     96.32% # Histogram of number of active warp inst buffers at a given time
system.gpu.shader_cores0.lsq.warpInstBufActive::25        19581      0.22%     96.54% # Histogram of number of active warp inst buffers at a given time
system.gpu.shader_cores0.lsq.warpInstBufActive::26        20353      0.23%     96.77% # Histogram of number of active warp inst buffers at a given time
system.gpu.shader_cores0.lsq.warpInstBufActive::27        23515      0.27%     97.04% # Histogram of number of active warp inst buffers at a given time
system.gpu.shader_cores0.lsq.warpInstBufActive::28        41008      0.46%     97.50% # Histogram of number of active warp inst buffers at a given time
system.gpu.shader_cores0.lsq.warpInstBufActive::29        29989      0.34%     97.84% # Histogram of number of active warp inst buffers at a given time
system.gpu.shader_cores0.lsq.warpInstBufActive::30        41894      0.47%     98.32% # Histogram of number of active warp inst buffers at a given time
system.gpu.shader_cores0.lsq.warpInstBufActive::31        33051      0.37%     98.69% # Histogram of number of active warp inst buffers at a given time
system.gpu.shader_cores0.lsq.warpInstBufActive::32        11294      0.13%     98.82% # Histogram of number of active warp inst buffers at a given time
system.gpu.shader_cores0.lsq.warpInstBufActive::33        11214      0.13%     98.95% # Histogram of number of active warp inst buffers at a given time
system.gpu.shader_cores0.lsq.warpInstBufActive::34        18299      0.21%     99.16% # Histogram of number of active warp inst buffers at a given time
system.gpu.shader_cores0.lsq.warpInstBufActive::35        16173      0.18%     99.34% # Histogram of number of active warp inst buffers at a given time
system.gpu.shader_cores0.lsq.warpInstBufActive::36         6401      0.07%     99.41% # Histogram of number of active warp inst buffers at a given time
system.gpu.shader_cores0.lsq.warpInstBufActive::37         3720      0.04%     99.45% # Histogram of number of active warp inst buffers at a given time
system.gpu.shader_cores0.lsq.warpInstBufActive::38         5640      0.06%     99.52% # Histogram of number of active warp inst buffers at a given time
system.gpu.shader_cores0.lsq.warpInstBufActive::39        14564      0.16%     99.68% # Histogram of number of active warp inst buffers at a given time
system.gpu.shader_cores0.lsq.warpInstBufActive::40         6068      0.07%     99.75% # Histogram of number of active warp inst buffers at a given time
system.gpu.shader_cores0.lsq.warpInstBufActive::41         5129      0.06%     99.81% # Histogram of number of active warp inst buffers at a given time
system.gpu.shader_cores0.lsq.warpInstBufActive::42         7958      0.09%     99.90% # Histogram of number of active warp inst buffers at a given time
system.gpu.shader_cores0.lsq.warpInstBufActive::43         8333      0.09%     99.99% # Histogram of number of active warp inst buffers at a given time
system.gpu.shader_cores0.lsq.warpInstBufActive::44          594      0.01%    100.00% # Histogram of number of active warp inst buffers at a given time
system.gpu.shader_cores0.lsq.warpInstBufActive::45            0      0.00%    100.00% # Histogram of number of active warp inst buffers at a given time
system.gpu.shader_cores0.lsq.warpInstBufActive::46            0      0.00%    100.00% # Histogram of number of active warp inst buffers at a given time
system.gpu.shader_cores0.lsq.warpInstBufActive::47            0      0.00%    100.00% # Histogram of number of active warp inst buffers at a given time
system.gpu.shader_cores0.lsq.warpInstBufActive::48            0      0.00%    100.00% # Histogram of number of active warp inst buffers at a given time
system.gpu.shader_cores0.lsq.warpInstBufActive::49            0      0.00%    100.00% # Histogram of number of active warp inst buffers at a given time
system.gpu.shader_cores0.lsq.warpInstBufActive::50            0      0.00%    100.00% # Histogram of number of active warp inst buffers at a given time
system.gpu.shader_cores0.lsq.warpInstBufActive::51            0      0.00%    100.00% # Histogram of number of active warp inst buffers at a given time
system.gpu.shader_cores0.lsq.warpInstBufActive::52            0      0.00%    100.00% # Histogram of number of active warp inst buffers at a given time
system.gpu.shader_cores0.lsq.warpInstBufActive::53            0      0.00%    100.00% # Histogram of number of active warp inst buffers at a given time
system.gpu.shader_cores0.lsq.warpInstBufActive::54            0      0.00%    100.00% # Histogram of number of active warp inst buffers at a given time
system.gpu.shader_cores0.lsq.warpInstBufActive::55            0      0.00%    100.00% # Histogram of number of active warp inst buffers at a given time
system.gpu.shader_cores0.lsq.warpInstBufActive::56            0      0.00%    100.00% # Histogram of number of active warp inst buffers at a given time
system.gpu.shader_cores0.lsq.warpInstBufActive::57            0      0.00%    100.00% # Histogram of number of active warp inst buffers at a given time
system.gpu.shader_cores0.lsq.warpInstBufActive::58            0      0.00%    100.00% # Histogram of number of active warp inst buffers at a given time
system.gpu.shader_cores0.lsq.warpInstBufActive::59            0      0.00%    100.00% # Histogram of number of active warp inst buffers at a given time
system.gpu.shader_cores0.lsq.warpInstBufActive::60            0      0.00%    100.00% # Histogram of number of active warp inst buffers at a given time
system.gpu.shader_cores0.lsq.warpInstBufActive::61            0      0.00%    100.00% # Histogram of number of active warp inst buffers at a given time
system.gpu.shader_cores0.lsq.warpInstBufActive::62            0      0.00%    100.00% # Histogram of number of active warp inst buffers at a given time
system.gpu.shader_cores0.lsq.warpInstBufActive::63            0      0.00%    100.00% # Histogram of number of active warp inst buffers at a given time
system.gpu.shader_cores0.lsq.warpInstBufActive::64            0      0.00%    100.00% # Histogram of number of active warp inst buffers at a given time
system.gpu.shader_cores0.lsq.warpInstBufActive::total      8827954                       # Histogram of number of active warp inst buffers at a given time
system.gpu.shader_cores0.lsq.cacheAccesses     0.001689                       # Average number of concurrent outstanding cache accesses
system.gpu.shader_cores0.lsq.writebackBlockedCycles            1                       # Number of cycles blocked for core writeback stage
system.gpu.shader_cores0.lsq.mshrHitQueued           79                       # Number of hits on blocked lines in MSHRs
system.gpu.shader_cores0.lsq.mshrsFullCycles            0                       # Number of cycles stalled waiting for an MSHR
system.gpu.shader_cores0.lsq.mshrsFullCount            0                       # Number of times MSHRs filled
system.gpu.shader_cores0.lsq.warpCoalescedAccesses::samples          416                       # Number of coalesced accesses per warp instruction
system.gpu.shader_cores0.lsq.warpCoalescedAccesses::mean     1.769231                       # Number of coalesced accesses per warp instruction
system.gpu.shader_cores0.lsq.warpCoalescedAccesses::gmean     1.601517                       # Number of coalesced accesses per warp instruction
system.gpu.shader_cores0.lsq.warpCoalescedAccesses::stdev     0.782098                       # Number of coalesced accesses per warp instruction
system.gpu.shader_cores0.lsq.warpCoalescedAccesses::0            0      0.00%      0.00% # Number of coalesced accesses per warp instruction
system.gpu.shader_cores0.lsq.warpCoalescedAccesses::1          186     44.71%     44.71% # Number of coalesced accesses per warp instruction
system.gpu.shader_cores0.lsq.warpCoalescedAccesses::2          140     33.65%     78.37% # Number of coalesced accesses per warp instruction
system.gpu.shader_cores0.lsq.warpCoalescedAccesses::3           90     21.63%    100.00% # Number of coalesced accesses per warp instruction
system.gpu.shader_cores0.lsq.warpCoalescedAccesses::4            0      0.00%    100.00% # Number of coalesced accesses per warp instruction
system.gpu.shader_cores0.lsq.warpCoalescedAccesses::5            0      0.00%    100.00% # Number of coalesced accesses per warp instruction
system.gpu.shader_cores0.lsq.warpCoalescedAccesses::6            0      0.00%    100.00% # Number of coalesced accesses per warp instruction
system.gpu.shader_cores0.lsq.warpCoalescedAccesses::7            0      0.00%    100.00% # Number of coalesced accesses per warp instruction
system.gpu.shader_cores0.lsq.warpCoalescedAccesses::8            0      0.00%    100.00% # Number of coalesced accesses per warp instruction
system.gpu.shader_cores0.lsq.warpCoalescedAccesses::9            0      0.00%    100.00% # Number of coalesced accesses per warp instruction
system.gpu.shader_cores0.lsq.warpCoalescedAccesses::10            0      0.00%    100.00% # Number of coalesced accesses per warp instruction
system.gpu.shader_cores0.lsq.warpCoalescedAccesses::11            0      0.00%    100.00% # Number of coalesced accesses per warp instruction
system.gpu.shader_cores0.lsq.warpCoalescedAccesses::12            0      0.00%    100.00% # Number of coalesced accesses per warp instruction
system.gpu.shader_cores0.lsq.warpCoalescedAccesses::13            0      0.00%    100.00% # Number of coalesced accesses per warp instruction
system.gpu.shader_cores0.lsq.warpCoalescedAccesses::14            0      0.00%    100.00% # Number of coalesced accesses per warp instruction
system.gpu.shader_cores0.lsq.warpCoalescedAccesses::15            0      0.00%    100.00% # Number of coalesced accesses per warp instruction
system.gpu.shader_cores0.lsq.warpCoalescedAccesses::16            0      0.00%    100.00% # Number of coalesced accesses per warp instruction
system.gpu.shader_cores0.lsq.warpCoalescedAccesses::17            0      0.00%    100.00% # Number of coalesced accesses per warp instruction
system.gpu.shader_cores0.lsq.warpCoalescedAccesses::18            0      0.00%    100.00% # Number of coalesced accesses per warp instruction
system.gpu.shader_cores0.lsq.warpCoalescedAccesses::19            0      0.00%    100.00% # Number of coalesced accesses per warp instruction
system.gpu.shader_cores0.lsq.warpCoalescedAccesses::20            0      0.00%    100.00% # Number of coalesced accesses per warp instruction
system.gpu.shader_cores0.lsq.warpCoalescedAccesses::21            0      0.00%    100.00% # Number of coalesced accesses per warp instruction
system.gpu.shader_cores0.lsq.warpCoalescedAccesses::22            0      0.00%    100.00% # Number of coalesced accesses per warp instruction
system.gpu.shader_cores0.lsq.warpCoalescedAccesses::23            0      0.00%    100.00% # Number of coalesced accesses per warp instruction
system.gpu.shader_cores0.lsq.warpCoalescedAccesses::24            0      0.00%    100.00% # Number of coalesced accesses per warp instruction
system.gpu.shader_cores0.lsq.warpCoalescedAccesses::25            0      0.00%    100.00% # Number of coalesced accesses per warp instruction
system.gpu.shader_cores0.lsq.warpCoalescedAccesses::26            0      0.00%    100.00% # Number of coalesced accesses per warp instruction
system.gpu.shader_cores0.lsq.warpCoalescedAccesses::27            0      0.00%    100.00% # Number of coalesced accesses per warp instruction
system.gpu.shader_cores0.lsq.warpCoalescedAccesses::28            0      0.00%    100.00% # Number of coalesced accesses per warp instruction
system.gpu.shader_cores0.lsq.warpCoalescedAccesses::29            0      0.00%    100.00% # Number of coalesced accesses per warp instruction
system.gpu.shader_cores0.lsq.warpCoalescedAccesses::30            0      0.00%    100.00% # Number of coalesced accesses per warp instruction
system.gpu.shader_cores0.lsq.warpCoalescedAccesses::31            0      0.00%    100.00% # Number of coalesced accesses per warp instruction
system.gpu.shader_cores0.lsq.warpCoalescedAccesses::32            0      0.00%    100.00% # Number of coalesced accesses per warp instruction
system.gpu.shader_cores0.lsq.warpCoalescedAccesses::total          416                       # Number of coalesced accesses per warp instruction
system.gpu.shader_cores0.lsq.warpLatencyRead::samples          288                       # Latency in cycles for whole warp to finish the read
system.gpu.shader_cores0.lsq.warpLatencyRead::mean    69.982639                       # Latency in cycles for whole warp to finish the read
system.gpu.shader_cores0.lsq.warpLatencyRead::gmean    35.953660                       # Latency in cycles for whole warp to finish the read
system.gpu.shader_cores0.lsq.warpLatencyRead::stdev    91.679470                       # Latency in cycles for whole warp to finish the read
system.gpu.shader_cores0.lsq.warpLatencyRead::0-31          156     54.17%     54.17% # Latency in cycles for whole warp to finish the read
system.gpu.shader_cores0.lsq.warpLatencyRead::32-63           39     13.54%     67.71% # Latency in cycles for whole warp to finish the read
system.gpu.shader_cores0.lsq.warpLatencyRead::64-95           31     10.76%     78.47% # Latency in cycles for whole warp to finish the read
system.gpu.shader_cores0.lsq.warpLatencyRead::96-127           15      5.21%     83.68% # Latency in cycles for whole warp to finish the read
system.gpu.shader_cores0.lsq.warpLatencyRead::128-159            9      3.12%     86.81% # Latency in cycles for whole warp to finish the read
system.gpu.shader_cores0.lsq.warpLatencyRead::160-191            7      2.43%     89.24% # Latency in cycles for whole warp to finish the read
system.gpu.shader_cores0.lsq.warpLatencyRead::192-223            6      2.08%     91.32% # Latency in cycles for whole warp to finish the read
system.gpu.shader_cores0.lsq.warpLatencyRead::224-255            1      0.35%     91.67% # Latency in cycles for whole warp to finish the read
system.gpu.shader_cores0.lsq.warpLatencyRead::256-287            5      1.74%     93.40% # Latency in cycles for whole warp to finish the read
system.gpu.shader_cores0.lsq.warpLatencyRead::288-319            3      1.04%     94.44% # Latency in cycles for whole warp to finish the read
system.gpu.shader_cores0.lsq.warpLatencyRead::320-351            6      2.08%     96.53% # Latency in cycles for whole warp to finish the read
system.gpu.shader_cores0.lsq.warpLatencyRead::352-383           10      3.47%    100.00% # Latency in cycles for whole warp to finish the read
system.gpu.shader_cores0.lsq.warpLatencyRead::384-415            0      0.00%    100.00% # Latency in cycles for whole warp to finish the read
system.gpu.shader_cores0.lsq.warpLatencyRead::416-447            0      0.00%    100.00% # Latency in cycles for whole warp to finish the read
system.gpu.shader_cores0.lsq.warpLatencyRead::448-479            0      0.00%    100.00% # Latency in cycles for whole warp to finish the read
[...]
system.ruby.L1Cache_Controller.Fwd_GETX::total          188                      
system.ruby.L1Cache_Controller.Fwd_GETS  |         187     45.61%     45.61% |          49     11.95%     57.56% |          53     12.93%     70.49% |          45     10.98%     81.46% |          51     12.44%     93.90% |           0      0.00%     93.90% |          25      6.10%    100.00%
system.ruby.L1Cache_Controller.Fwd_GETS::total          410                      
system.ruby.L1Cache_Controller.Data      |           4      3.88%      3.88% |           0      0.00%      3.88% |           0      0.00%      3.88% |           0      0.00%      3.88% |           0      0.00%      3.88% |           0      0.00%      3.88% |          99     96.12%    100.00%
system.ruby.L1Cache_Controller.Data::total          103                      
system.ruby.L1Cache_Controller.Data_Exclusive |         633     53.92%     53.92% |          94      8.01%     61.93% |         104      8.86%     70.78% |         104      8.86%     79.64% |         103      8.77%     88.42% |           0      0.00%     88.42% |         136     11.58%    100.00%
system.ruby.L1Cache_Controller.Data_Exclusive::total         1174                      
system.ruby.L1Cache_Controller.DataS_fromL1 |          12      2.93%      2.93% |          18      4.39%      7.32% |          19      4.63%     11.95% |           9      2.20%     14.15% |          20      4.88%     19.02% |           0      0.00%     19.02% |         332     80.98%    100.00%
system.ruby.L1Cache_Controller.DataS_fromL1::total          410                      
system.ruby.L1Cache_Controller.Data_all_Acks |        6357     90.35%     90.35% |          17      0.24%     90.59% |          31      0.44%     91.03% |          20      0.28%     91.32% |          25      0.36%     91.67% |           0      0.00%     91.67% |         586      8.33%    100.00%
system.ruby.L1Cache_Controller.Data_all_Acks::total         7036                      
system.ruby.L1Cache_Controller.Ack       |          18     23.08%     23.08% |          22     28.21%     51.28% |          11     14.10%     65.38% |           8     10.26%     75.64% |          16     20.51%     96.15% |           0      0.00%     96.15% |           3      3.85%    100.00%
system.ruby.L1Cache_Controller.Ack::total           78                      
system.ruby.L1Cache_Controller.Ack_all   |          13      7.69%      7.69% |          22     13.02%     20.71% |          11      6.51%     27.22% |           8      4.73%     31.95% |          16      9.47%     41.42% |           0      0.00%     41.42% |          99     58.58%    100.00%
system.ruby.L1Cache_Controller.Ack_all::total          169                      
system.ruby.L1Cache_Controller.WB_Ack    |         822     54.73%     54.73% |           0      0.00%     54.73% |           0      0.00%     54.73% |           0      0.00%     54.73% |           0      0.00%     54.73% |           0      0.00%     54.73% |         680     45.27%    100.00%
system.ruby.L1Cache_Controller.WB_Ack::total         1502                      
system.ruby.L1Cache_Controller.NP.Load   |         624     41.03%     41.03% |          77      5.06%     46.09% |          83      5.46%     51.55% |          77      5.06%     56.61% |          83      5.46%     62.06% |           0      0.00%     62.06% |         577     37.94%    100.00%
system.ruby.L1Cache_Controller.NP.Load::total         1521                      
system.ruby.L1Cache_Controller.NP.Ifetch |        5530     99.12%     99.12% |          12      0.22%     99.34% |          13      0.23%     99.57% |          12      0.22%     99.78% |          12      0.22%    100.00% |           0      0.00%    100.00% |           0      0.00%    100.00%
system.ruby.L1Cache_Controller.NP.Ifetch::total         5579                      
system.ruby.L1Cache_Controller.NP.Store  |         824     58.36%     58.36% |           2      0.14%     58.50% |           4      0.28%     58.78% |           2      0.14%     58.92% |           4      0.28%     59.21% |           0      0.00%     59.21% |         576     40.79%    100.00%
system.ruby.L1Cache_Controller.NP.Store::total         1412                      
system.ruby.L1Cache_Controller.NP.Inv    |          14     60.87%     60.87% |           0      0.00%     60.87% |           0      0.00%     60.87% |           0      0.00%     60.87% |           0      0.00%     60.87% |           0      0.00%     60.87% |           9     39.13%    100.00%
system.ruby.L1Cache_Controller.NP.Inv::total           23                      
system.ruby.L1Cache_Controller.I.Load    |          24     13.33%     13.33% |          36     20.00%     33.33% |          41     22.78%     56.11% |          38     21.11%     77.22% |          41     22.78%    100.00% |           0      0.00%    100.00% |           0      0.00%    100.00%
system.ruby.L1Cache_Controller.I.Load::total          180                      
system.ruby.L1Cache_Controller.I.Store   |           4     12.90%     12.90% |           2      6.45%     19.35% |          13     41.94%     61.29% |           4     12.90%     74.19% |           8     25.81%    100.00% |           0      0.00%    100.00% |           0      0.00%    100.00%
system.ruby.L1Cache_Controller.I.Store::total           31                      
system.ruby.L1Cache_Controller.I.L1_Replacement |          14     46.67%     46.67% |           0      0.00%     46.67% |           0      0.00%     46.67% |           0      0.00%     46.67% |           0      0.00%     46.67% |           0      0.00%     46.67% |          16     53.33%    100.00%
system.ruby.L1Cache_Controller.I.L1_Replacement::total           30                      
system.ruby.L1Cache_Controller.S.Load    |         545     48.10%     48.10% |         130     11.47%     59.58% |         157     13.86%     73.43% |         140     12.36%     85.79% |         161     14.21%    100.00% |           0      0.00%    100.00% |           0      0.00%    100.00%
system.ruby.L1Cache_Controller.S.Load::total         1133                      
system.ruby.L1Cache_Controller.S.Ifetch  |     6659581    100.00%    100.00% |           0      0.00%    100.00% |           0      0.00%    100.00% |           0      0.00%    100.00% |           0      0.00%    100.00% |           0      0.00%    100.00% |           0      0.00%    100.00%
system.ruby.L1Cache_Controller.S.Ifetch::total      6659581                      
system.ruby.L1Cache_Controller.S.Store   |           9     13.64%     13.64% |          22     33.33%     46.97% |          11     16.67%     63.64% |           8     12.12%     75.76% |          16     24.24%    100.00% |           0      0.00%    100.00% |           0      0.00%    100.00%
system.ruby.L1Cache_Controller.S.Store::total           66                      
system.ruby.L1Cache_Controller.S.Inv     |          88     55.70%     55.70% |           8      5.06%     60.76% |          20     12.66%     73.42% |           8      5.06%     78.48% |          17     10.76%     89.24% |           0      0.00%     89.24% |          17     10.76%    100.00%
system.ruby.L1Cache_Controller.S.Inv::total          158                      
system.ruby.L1Cache_Controller.S.L1_Replacement |        5381     92.30%     92.30% |           0      0.00%     92.30% |           0      0.00%     92.30% |           0      0.00%     92.30% |           0      0.00%     92.30% |           0      0.00%     92.30% |         449      7.70%    100.00%
system.ruby.L1Cache_Controller.S.L1_Replacement::total         5830                      
system.ruby.L1Cache_Controller.E.Load    |      135294     99.58%     99.58% |         179      0.13%     99.71% |         126      0.09%     99.80% |         152      0.11%     99.91% |         120      0.09%    100.00% |           0      0.00%    100.00% |           0      0.00%    100.00%
system.ruby.L1Cache_Controller.E.Load::total       135871                      
system.ruby.L1Cache_Controller.E.Store   |         309     46.05%     46.05% |          84     12.52%     58.57% |          92     13.71%     72.28% |          96     14.31%     86.59% |          90     13.41%    100.00% |           0      0.00%    100.00% |           0      0.00%    100.00%
system.ruby.L1Cache_Controller.E.Store::total          671                      
system.ruby.L1Cache_Controller.E.L1_Replacement |         237     63.54%     63.54% |           0      0.00%     63.54% |           0      0.00%     63.54% |           0      0.00%     63.54% |           0      0.00%     63.54% |           0      0.00%     63.54% |         136     36.46%    100.00%
system.ruby.L1Cache_Controller.E.L1_Replacement::total          373                      
system.ruby.L1Cache_Controller.E.Fwd_GETX |          12    100.00%    100.00% |           0      0.00%    100.00% |           0      0.00%    100.00% |           0      0.00%    100.00% |           0      0.00%    100.00% |           0      0.00%    100.00% |           0      0.00%    100.00%
system.ruby.L1Cache_Controller.E.Fwd_GETX::total           12                      
system.ruby.L1Cache_Controller.E.Fwd_GETS |           3      6.52%      6.52% |          10     21.74%     28.26% |          12     26.09%     54.35% |           8     17.39%     71.74% |          13     28.26%    100.00% |           0      0.00%    100.00% |           0      0.00%    100.00%
system.ruby.L1Cache_Controller.E.Fwd_GETS::total           46                      
system.ruby.L1Cache_Controller.M.Load    |     1103973    100.00%    100.00% |           0      0.00%    100.00% |          20      0.00%    100.00% |          15      0.00%    100.00% |          17      0.00%    100.00% |           0      0.00%    100.00% |           0      0.00%    100.00%
system.ruby.L1Cache_Controller.M.Load::total      1104025                      
system.ruby.L1Cache_Controller.M.Store   |      844403     99.91%     99.91% |         204      0.02%     99.93% |         196      0.02%     99.95% |         204      0.02%     99.98% |         196      0.02%    100.00% |           0      0.00%    100.00% |           0      0.00%    100.00%
system.ruby.L1Cache_Controller.M.Store::total       845203                      
system.ruby.L1Cache_Controller.M.L1_Replacement |         585     51.82%     51.82% |           0      0.00%     51.82% |           0      0.00%     51.82% |           0      0.00%     51.82% |           0      0.00%     51.82% |           0      0.00%     51.82% |         544     48.18%    100.00%
system.ruby.L1Cache_Controller.M.L1_Replacement::total         1129                      
system.ruby.L1Cache_Controller.M.Fwd_GETX |           8      4.55%      4.55% |          38     21.59%     26.14% |          45     25.57%     51.70% |          39     22.16%     73.86% |          46     26.14%    100.00% |           0      0.00%    100.00% |           0      0.00%    100.00%
system.ruby.L1Cache_Controller.M.Fwd_GETX::total          176                      
system.ruby.L1Cache_Controller.M.Fwd_GETS |         184     50.55%     50.55% |          39     10.71%     61.26% |          41     11.26%     72.53% |          37     10.16%     82.69% |          38     10.44%     93.13% |           0      0.00%     93.13% |          25      6.87%    100.00%
system.ruby.L1Cache_Controller.M.Fwd_GETS::total          364                      
system.ruby.L1Cache_Controller.IS.L1_Replacement |           0      0.00%      0.00% |           0      0.00%      0.00% |           0      0.00%      0.00% |           0      0.00%      0.00% |           0      0.00%      0.00% |           0      0.00%      0.00% |        6090    100.00%    100.00%
system.ruby.L1Cache_Controller.IS.L1_Replacement::total         6090                      
system.ruby.L1Cache_Controller.IS.Data_Exclusive |         633     53.92%     53.92% |          94      8.01%     61.93% |         104      8.86%     70.78% |         104      8.86%     79.64% |         103      8.77%     88.42% |           0      0.00%     88.42% |         136     11.58%    100.00%
system.ruby.L1Cache_Controller.IS.Data_Exclusive::total         1174                      
system.ruby.L1Cache_Controller.IS.DataS_fromL1 |          12      2.93%      2.93% |          18      4.39%      7.32% |          19      4.63%     11.95% |           9      2.20%     14.15% |          20      4.88%     19.02% |           0      0.00%     19.02% |         332     80.98%    100.00%
system.ruby.L1Cache_Controller.IS.DataS_fromL1::total          410                      
system.ruby.L1Cache_Controller.IS.Data_all_Acks |        5533     97.14%     97.14% |          13      0.23%     97.37% |          14      0.25%     97.61% |          14      0.25%     97.86% |          13      0.23%     98.09% |           0      0.00%     98.09% |         109      1.91%    100.00%
system.ruby.L1Cache_Controller.IS.Data_all_Acks::total         5696                      
system.ruby.L1Cache_Controller.IM.L1_Replacement |           0      0.00%      0.00% |           0      0.00%      0.00% |           0      0.00%      0.00% |           0      0.00%      0.00% |           0      0.00%      0.00% |           0      0.00%      0.00% |        5260    100.00%    100.00%
system.ruby.L1Cache_Controller.IM.L1_Replacement::total         5260                      
system.ruby.L1Cache_Controller.IM.Data   |           4      3.88%      3.88% |           0      0.00%      3.88% |           0      0.00%      3.88% |           0      0.00%      3.88% |           0      0.00%      3.88% |           0      0.00%      3.88% |          99     96.12%    100.00%
system.ruby.L1Cache_Controller.IM.Data::total          103                      
system.ruby.L1Cache_Controller.IM.Data_all_Acks |         824     61.49%     61.49% |           4      0.30%     61.79% |          17      1.27%     63.06% |           6      0.45%     63.51% |          12      0.90%     64.40% |           0      0.00%     64.40% |         477     35.60%    100.00%
system.ruby.L1Cache_Controller.IM.Data_all_Acks::total         1340                      
system.ruby.L1Cache_Controller.IM.Ack    |           0      0.00%      0.00% |           0      0.00%      0.00% |           0      0.00%      0.00% |           0      0.00%      0.00% |           0      0.00%      0.00% |           0      0.00%      0.00% |           3    100.00%    100.00%
system.ruby.L1Cache_Controller.IM.Ack::total            3                      
system.ruby.L1Cache_Controller.SM.L1_Replacement |           0      0.00%      0.00% |           0      0.00%      0.00% |           0      0.00%      0.00% |           0      0.00%      0.00% |           0      0.00%      0.00% |           0      0.00%      0.00% |         146    100.00%    100.00%
system.ruby.L1Cache_Controller.SM.L1_Replacement::total          146                      
system.ruby.L1Cache_Controller.SM.Ack    |          18     24.00%     24.00% |          22     29.33%     53.33% |          11     14.67%     68.00% |           8     10.67%     78.67% |          16     21.33%    100.00% |           0      0.00%    100.00% |           0      0.00%    100.00%
system.ruby.L1Cache_Controller.SM.Ack::total           75                      
system.ruby.L1Cache_Controller.SM.Ack_all |          13      7.69%      7.69% |          22     13.02%     20.71% |          11      6.51%     27.22% |           8      4.73%     31.95% |          16      9.47%     41.42% |           0      0.00%     41.42% |          99     58.58%    100.00%
system.ruby.L1Cache_Controller.SM.Ack_all::total          169                      
system.ruby.L1Cache_Controller.M_I.Ifetch |           2    100.00%    100.00% |           0      0.00%    100.00% |           0      0.00%    100.00% |           0      0.00%    100.00% |           0      0.00%    100.00% |           0      0.00%    100.00% |           0      0.00%    100.00%
system.ruby.L1Cache_Controller.M_I.Ifetch::total            2                      
system.ruby.L1Cache_Controller.M_I.WB_Ack |         822     54.73%     54.73% |           0      0.00%     54.73% |           0      0.00%     54.73% |           0      0.00%     54.73% |           0      0.00%     54.73% |           0      0.00%     54.73% |         680     45.27%    100.00%
system.ruby.L1Cache_Controller.M_I.WB_Ack::total         1502                      
system.ruby.L2Cache_Controller.L1_GET_INSTR         5579      0.00%      0.00%
system.ruby.L2Cache_Controller.L1_GETS           1713      0.00%      0.00%
system.ruby.L2Cache_Controller.L1_GETX           1445      0.00%      0.00%
system.ruby.L2Cache_Controller.L1_UPGRADE           66      0.00%      0.00%
system.ruby.L2Cache_Controller.L1_PUTX           1502      0.00%      0.00%
system.ruby.L2Cache_Controller.Mem_Data          1676      0.00%      0.00%
system.ruby.L2Cache_Controller.WB_Data            364      0.00%      0.00%
system.ruby.L2Cache_Controller.WB_Data_clean           46      0.00%      0.00%
system.ruby.L2Cache_Controller.Unblock            410      0.00%      0.00%
system.ruby.L2Cache_Controller.Exclusive_Unblock         2683      0.00%      0.00%
system.ruby.L2Cache_Controller.NP.L1_GET_INSTR          472      0.00%      0.00%
system.ruby.L2Cache_Controller.NP.L1_GETS          121      0.00%      0.00%
system.ruby.L2Cache_Controller.NP.L1_GETX         1083      0.00%      0.00%
system.ruby.L2Cache_Controller.SS.L1_GET_INSTR         5083      0.00%      0.00%
system.ruby.L2Cache_Controller.SS.L1_GETS          117      0.00%      0.00%
system.ruby.L2Cache_Controller.SS.L1_GETX          106      0.00%      0.00%
system.ruby.L2Cache_Controller.SS.L1_UPGRADE           66      0.00%      0.00%
system.ruby.L2Cache_Controller.M.L1_GET_INSTR            3      0.00%      0.00%
system.ruby.L2Cache_Controller.M.L1_GETS         1053      0.00%      0.00%
system.ruby.L2Cache_Controller.M.L1_GETX           66      0.00%      0.00%
system.ruby.L2Cache_Controller.MT.L1_GETS          410      0.00%      0.00%
system.ruby.L2Cache_Controller.MT.L1_GETX          188      0.00%      0.00%
system.ruby.L2Cache_Controller.MT.L1_PUTX         1502      0.00%      0.00%
system.ruby.L2Cache_Controller.ISS.Mem_Data          121      0.00%      0.00%
system.ruby.L2Cache_Controller.IS.L1_GET_INSTR           21      0.00%      0.00%
system.ruby.L2Cache_Controller.IS.Mem_Data          472      0.00%      0.00%
system.ruby.L2Cache_Controller.IM.Mem_Data         1083      0.00%      0.00%
system.ruby.L2Cache_Controller.SS_MB.L1_GETX            2      0.00%      0.00%
system.ruby.L2Cache_Controller.SS_MB.Exclusive_Unblock          172      0.00%      0.00%
system.ruby.L2Cache_Controller.MT_MB.L1_GETS           10      0.00%      0.00%
system.ruby.L2Cache_Controller.MT_MB.Exclusive_Unblock         2511      0.00%      0.00%
system.ruby.L2Cache_Controller.MT_IIB.L1_GETS            2      0.00%      0.00%
system.ruby.L2Cache_Controller.MT_IIB.WB_Data           97      0.00%      0.00%
system.ruby.L2Cache_Controller.MT_IIB.WB_Data_clean            5      0.00%      0.00%
system.ruby.L2Cache_Controller.MT_IIB.Unblock          308      0.00%      0.00%
system.ruby.L2Cache_Controller.MT_IB.WB_Data          267      0.00%      0.00%
system.ruby.L2Cache_Controller.MT_IB.WB_Data_clean           41      0.00%      0.00%
system.ruby.L2Cache_Controller.MT_SB.Unblock          102      0.00%      0.00%
system.ruby.Directory_Controller.Fetch           1676      0.00%      0.00%
system.ruby.Directory_Controller.Memory_Data         1676      0.00%      0.00%
system.ruby.Directory_Controller.I.Fetch         1676      0.00%      0.00%
system.ruby.Directory_Controller.IM.Memory_Data         1676      0.00%      0.00%

---------- End Simulation Statistics   ----------
