
---------- Begin Simulation Statistics ----------
sim_seconds                                  0.017679                       # Number of seconds simulated
sim_ticks                                 17679031000                       # Number of ticks simulated
final_tick                                17679031000                       # Number of ticks from beginning of simulation (restored from checkpoints and never reset)
sim_freq                                 1000000000000                       # Frequency of simulated ticks
host_inst_rate                                 234710                       # Simulator instruction rate (inst/s)
host_op_rate                                   448396                       # Simulator op (including micro ops) rate (op/s)
host_tick_rate                              836523532                       # Simulator tick rate (ticks/s)
host_mem_usage                                2422304                       # Number of bytes of host memory used
host_seconds                                    21.13                       # Real time elapsed on the host
sim_insts                                     4960342                       # Number of instructions simulated
sim_ops                                       9476372                       # Number of ops (including micro ops) simulated
system.voltage_domain.voltage                       1                       # Voltage in Volts
system.clk_domain.clock                          1000                       # Clock period in ticks
system.mem_ctrls.bytes_read::gpu.shader_cores0.data        35072                       # Number of bytes read from this memory
system.mem_ctrls.bytes_read::gpu.shader_cores0.inst          288                       # Number of bytes read from this memory
system.mem_ctrls.bytes_read::gpu.shader_cores1.data        35456                       # Number of bytes read from this memory
system.mem_ctrls.bytes_read::gpu.shader_cores1.inst          312                       # Number of bytes read from this memory
system.mem_ctrls.bytes_read::gpu.shader_cores2.data        35072                       # Number of bytes read from this memory
system.mem_ctrls.bytes_read::gpu.shader_cores2.inst          288                       # Number of bytes read from this memory
system.mem_ctrls.bytes_read::gpu.shader_cores3.data        34816                       # Number of bytes read from this memory
system.mem_ctrls.bytes_read::gpu.shader_cores3.inst          288                       # Number of bytes read from this memory
system.mem_ctrls.bytes_read::gpu.ce             73052                       # Number of bytes read from this memory
system.mem_ctrls.bytes_read::cpu.inst        53320888                       # Number of bytes read from this memory
system.mem_ctrls.bytes_read::cpu.data         7972111                       # Number of bytes read from this memory
system.mem_ctrls.bytes_read::total           61507643                       # Number of bytes read from this memory
system.mem_ctrls.bytes_inst_read::gpu.shader_cores0.inst          288                       # Number of instructions bytes read from this memory
system.mem_ctrls.bytes_inst_read::gpu.shader_cores1.inst          312                       # Number of instructions bytes read from this memory
system.mem_ctrls.bytes_inst_read::gpu.shader_cores2.inst          288                       # Number of instructions bytes read from this memory
system.mem_ctrls.bytes_inst_read::gpu.shader_cores3.inst          288                       # Number of instructions bytes read from this memory
system.mem_ctrls.bytes_inst_read::cpu.inst     53320888                       # Number of instructions bytes read from this memory
system.mem_ctrls.bytes_inst_read::total      53322064                       # Number of instructions bytes read from this memory
system.mem_ctrls.bytes_written::gpu.shader_cores0.data        12544                       # Number of bytes written to this memory
system.mem_ctrls.bytes_written::gpu.shader_cores1.data        12672                       # Number of bytes written to this memory
system.mem_ctrls.bytes_written::gpu.shader_cores2.data        12544                       # Number of bytes written to this memory
system.mem_ctrls.bytes_written::gpu.shader_cores3.data        12544                       # Number of bytes written to this memory
system.mem_ctrls.bytes_written::gpu.ce          73052                       # Number of bytes written to this memory
system.mem_ctrls.bytes_written::cpu.data      4969927                       # Number of bytes written to this memory
system.mem_ctrls.bytes_written::total         5093283                       # Number of bytes written to this memory
system.mem_ctrls.num_reads::gpu.shader_cores0.data          428                       # Number of read requests responded to by this memory
system.mem_ctrls.num_reads::gpu.shader_cores0.inst           12                       # Number of read requests responded to by this memory
system.mem_ctrls.num_reads::gpu.shader_cores1.data          421                       # Number of read requests responded to by this memory
system.mem_ctrls.num_reads::gpu.shader_cores1.inst           13                       # Number of read requests responded to by this memory
system.mem_ctrls.num_reads::gpu.shader_cores2.data          428                       # Number of read requests responded to by this memory
system.mem_ctrls.num_reads::gpu.shader_cores2.inst           12                       # Number of read requests responded to by this memory
system.mem_ctrls.num_reads::gpu.shader_cores3.data          416                       # Number of read requests responded to by this memory
system.mem_ctrls.num_reads::gpu.shader_cores3.inst           12                       # Number of read requests responded to by this memory
system.mem_ctrls.num_reads::gpu.ce                577                       # Number of read requests responded to by this memory
system.mem_ctrls.num_reads::cpu.inst          6665111                       # Number of read requests responded to by this memory
system.mem_ctrls.num_reads::cpu.data          1297860                       # Number of read requests responded to by this memory
system.mem_ctrls.num_reads::total             7965290                       # Number of read requests responded to by this memory
system.mem_ctrls.num_writes::gpu.shader_cores0.data          308                       # Number of write requests responded to by this memory
system.mem_ctrls.num_writes::gpu.shader_cores1.data          322                       # Number of write requests responded to by this memory
system.mem_ctrls.num_writes::gpu.shader_cores2.data          308                       # Number of write requests responded to by this memory
system.mem_ctrls.num_writes::gpu.shader_cores3.data          320                       # Number of write requests responded to by this memory
system.mem_ctrls.num_writes::gpu.ce               576                       # Number of write requests responded to by this memory
system.mem_ctrls.num_writes::cpu.data          788149                       # Number of write requests responded to by this memory
system.mem_ctrls.num_writes::total             789983                       # Number of write requests responded to by this memory
system.mem_ctrls.bw_read::gpu.shader_cores0.data      1983819                       # Total read bandwidth from this memory (bytes/s)
system.mem_ctrls.bw_read::gpu.shader_cores0.inst        16290                       # Total read bandwidth from this memory (bytes/s)
system.mem_ctrls.bw_read::gpu.shader_cores1.data      2005540                       # Total read bandwidth from this memory (bytes/s)
system.mem_ctrls.bw_read::gpu.shader_cores1.inst        17648                       # Total read bandwidth from this memory (bytes/s)
system.mem_ctrls.bw_read::gpu.shader_cores2.data      1983819                       # Total read bandwidth from this memory (bytes/s)
system.mem_ctrls.bw_read::gpu.shader_cores2.inst        16290                       # Total read bandwidth from this memory (bytes/s)
system.mem_ctrls.bw_read::gpu.shader_cores3.data      1969339                       # Total read bandwidth from this memory (bytes/s)
system.mem_ctrls.bw_read::gpu.shader_cores3.inst        16290                       # Total read bandwidth from this memory (bytes/s)
system.mem_ctrls.bw_read::gpu.ce              4132127                       # Total read bandwidth from this memory (bytes/s)
system.mem_ctrls.bw_read::cpu.inst         3016052633                       # Total read bandwidth from this memory (bytes/s)
system.mem_ctrls.bw_read::cpu.data          450935970                       # Total read bandwidth from this memory (bytes/s)
system.mem_ctrls.bw_read::total            3479129767                       # Total read bandwidth from this memory (bytes/s)
system.mem_ctrls.bw_inst_read::gpu.shader_cores0.inst        16290                       # Instruction read bandwidth from this memory (bytes/s)
system.mem_ctrls.bw_inst_read::gpu.shader_cores1.inst        17648                       # Instruction read bandwidth from this memory (bytes/s)
system.mem_ctrls.bw_inst_read::gpu.shader_cores2.inst        16290                       # Instruction read bandwidth from this memory (bytes/s)
system.mem_ctrls.bw_inst_read::gpu.shader_cores3.inst        16290                       # Instruction read bandwidth from this memory (bytes/s)
system.mem_ctrls.bw_inst_read::cpu.inst    3016052633                       # Instruction read bandwidth from this memory (bytes/s)
system.mem_ctrls.bw_inst_read::total       3016119153                       # Instruction read bandwidth from this memory (bytes/s)
system.mem_ctrls.bw_write::gpu.shader_cores0.data       709541                       # Write bandwidth from this memory (bytes/s)
system.mem_ctrls.bw_write::gpu.shader_cores1.data       716781                       # Write bandwidth from this memory (bytes/s)
system.mem_ctrls.bw_write::gpu.shader_cores2.data       709541                       # Write bandwidth from this memory (bytes/s)
system.mem_ctrls.bw_write::gpu.shader_cores3.data       709541                       # Write bandwidth from this memory (bytes/s)
system.mem_ctrls.bw_write::gpu.ce             4132127                       # Write bandwidth from this memory (bytes/s)
system.mem_ctrls.bw_write::cpu.data         281119876                       # Write bandwidth from this memory (bytes/s)
system.mem_ctrls.bw_write::total            288097408                       # Write bandwidth from this memory (bytes/s)
system.mem_ctrls.bw_total::gpu.shader_cores0.data      2693360                       # Total bandwidth to/from this memory (bytes/s)
system.mem_ctrls.bw_total::gpu.shader_cores0.inst        16290                       # Total bandwidth to/from this memory (bytes/s)
system.mem_ctrls.bw_total::gpu.shader_cores1.data      2722321                       # Total bandwidth to/from this memory (bytes/s)
system.mem_ctrls.bw_total::gpu.shader_cores1.inst        17648                       # Total bandwidth to/from this memory (bytes/s)
system.mem_ctrls.bw_total::gpu.shader_cores2.data      2693360                       # Total bandwidth to/from this memory (bytes/s)
system.mem_ctrls.bw_total::gpu.shader_cores2.inst        16290                       # Total bandwidth to/from this memory (bytes/s)
system.mem_ctrls.bw_total::gpu.shader_cores3.data      2678880                       # Total bandwidth to/from this memory (bytes/s)
system.mem_ctrls.bw_total::gpu.shader_cores3.inst        16290                       # Total bandwidth to/from this memory (bytes/s)
system.mem_ctrls.bw_total::gpu.ce             8264254                       # Total bandwidth to/from this memory (bytes/s)
system.mem_ctrls.bw_total::cpu.inst        3016052633                       # Total bandwidth to/from this memory (bytes/s)
system.mem_ctrls.bw_total::cpu.data         732055846                       # Total bandwidth to/from this memory (bytes/s)
system.mem_ctrls.bw_total::total           3767227174                       # Total bandwidth to/from this memory (bytes/s)
system.ruby_clk_domain.clock                      500                       # Clock period in ticks
system.ruby.delayHist::bucket_size                256                       # delay histogram for all message
system.ruby.delayHist::max_bucket                2559                       # delay histogram for all message
system.ruby.delayHist::samples                  26967                       # delay histogram for all message
system.ruby.delayHist::mean                 25.202803                       # delay histogram for all message
system.ruby.delayHist::stdev               169.582548                       # delay histogram for all message
system.ruby.delayHist                    |       26522     98.35%     98.35% |          68      0.25%     98.60% |         107      0.40%     99.00% |          54      0.20%     99.20% |          31      0.11%     99.31% |          30      0.11%     99.43% |          34      0.13%     99.55% |          71      0.26%     99.81% |          49      0.18%    100.00% |           1      0.00%    100.00% # delay histogram for all message
system.ruby.delayHist::total                    26967                       # delay histogram for all message
system.ruby.outstanding_req_hist::bucket_size            8                      
system.ruby.outstanding_req_hist::max_bucket           79                      
system.ruby.outstanding_req_hist::samples      8755274                      
system.ruby.outstanding_req_hist::mean       1.008751                      
system.ruby.outstanding_req_hist::gmean      1.000848                      
system.ruby.outstanding_req_hist::stdev      0.660456                      
system.ruby.outstanding_req_hist         |     8753385     99.98%     99.98% |         329      0.00%     99.98% |         200      0.00%     99.98% |         208      0.00%     99.99% |         260      0.00%     99.99% |          54      0.00%     99.99% |          73      0.00%     99.99% |         146      0.00%     99.99% |         619      0.01%    100.00% |           0      0.00%    100.00%
system.ruby.outstanding_req_hist::total       8755274                      
system.ruby.latency_hist::bucket_size             256                      
system.ruby.latency_hist::max_bucket             2559                      
system.ruby.latency_hist::samples             8755273                      
system.ruby.latency_hist::mean               3.162913                      
system.ruby.latency_hist::gmean              3.007635                      
system.ruby.latency_hist::stdev             11.555978                      
system.ruby.latency_hist                 |     8754002     99.99%     99.99% |         309      0.00%     99.99% |         387      0.00%     99.99% |         209      0.00%    100.00% |         155      0.00%    100.00% |          91      0.00%    100.00% |          71      0.00%    100.00% |          37      0.00%    100.00% |          12      0.00%    100.00% |           0      0.00%    100.00%
system.ruby.latency_hist::total               8755273                      
system.ruby.hit_latency_hist::bucket_size            1                      
system.ruby.hit_latency_hist::max_bucket            9                      
system.ruby.hit_latency_hist::samples         8746427                      
system.ruby.hit_latency_hist::mean           2.999469                      
system.ruby.hit_latency_hist::gmean          2.999125                      
system.ruby.hit_latency_hist::stdev          0.032583                      
system.ruby.hit_latency_hist             |           0      0.00%      0.00% |        2322      0.03%      0.03% |           0      0.00%      0.03% |     8744105     99.97%    100.00% |           0      0.00%    100.00% |           0      0.00%    100.00% |           0      0.00%    100.00% |           0      0.00%    100.00% |           0      0.00%    100.00% |           0      0.00%    100.00%
system.ruby.hit_latency_hist::total           8746427                      
system.ruby.miss_latency_hist::bucket_size          256                      
system.ruby.miss_latency_hist::max_bucket         2559                      
system.ruby.miss_latency_hist::samples           8846                      
system.ruby.miss_latency_hist::mean        164.767013                      
system.ruby.miss_latency_hist::gmean        49.539321                      
system.ruby.miss_latency_hist::stdev       325.637242                      
system.ruby.miss_latency_hist            |        7575     85.63%     85.63% |         309      3.49%     89.13% |         387      4.37%     93.50% |         209      2.36%     95.86% |         155      1.75%     97.61% |          91      1.03%     98.64% |          71      0.80%     99.45% |          37      0.42%     99.86% |          12      0.14%    100.00% |           0      0.00%    100.00%
system.ruby.miss_latency_hist::total             8846                      
system.ruby.l1_cntrl_ce.L1Dcache.demand_hits            0                       # Number of cache demand hits
system.ruby.l1_cntrl_ce.L1Dcache.demand_misses         1153                       # Number of cache demand misses
system.ruby.l1_cntrl_ce.L1Dcache.demand_accesses         1153                       # Number of cache demand accesses
system.ruby.l1_cntrl_ce.L1Icache.demand_hits            0                       # Number of cache demand hits
system.ruby.l1_cntrl_ce.L1Icache.demand_misses            0                       # Number of cache demand misses
system.ruby.l1_cntrl_ce.L1Icache.demand_accesses            0                       # Number of cache demand accesses
system.ruby.l1_cntrl_ce.prefetcher.miss_observed            0                       # number of misses observed
system.ruby.l1_cntrl_ce.prefetcher.allocated_streams            0                       # number of streams allocated for prefetching
system.ruby.l1_cntrl_ce.prefetcher.prefetches_requested            0                       # number of prefetch requests made
system.ruby.l1_cntrl_ce.prefetcher.prefetches_accepted            0                       # number of prefetch requests accepted
system.ruby.l1_cntrl_ce.prefetcher.dropped_prefetches            0                       # number of prefetch requests dropped
system.ruby.l1_cntrl_ce.prefetcher.hits             0                       # number of prefetched blocks accessed
system.ruby.l1_cntrl_ce.prefetcher.partial_hits            0                       # number of misses observed for a block being prefetched
system.ruby.l1_cntrl_ce.prefetcher.pages_crossed            0                       # number of prefetches across pages
system.ruby.l1_cntrl_ce.prefetcher.misses_on_prefetched_blocks            0                       # number of misses for blocks that were prefetched, yet missed
system.ruby.l1_cntrl_ce.fully_busy_cycles            1                       # cycles for which number of transistions == max transitions
system.ruby.l1_cntrl0.L1Dcache.demand_hits      2084524                       # Number of cache demand hits
system.ruby.l1_cntrl0.L1Dcache.demand_misses         1485                       # Number of cache demand misses
system.ruby.l1_cntrl0.L1Dcache.demand_accesses      2086009                       # Number of cache demand accesses
system.ruby.l1_cntrl0.L1Icache.demand_hits      6659581                       # Number of cache demand hits
system.ruby.l1_cntrl0.L1Icache.demand_misses         5530                       # Number of cache demand misses
system.ruby.l1_cntrl0.L1Icache.demand_accesses      6665111                       # Number of cache demand accesses
system.ruby.l1_cntrl0.prefetcher.miss_observed            0                       # number of misses observed
system.ruby.l1_cntrl0.prefetcher.allocated_streams            0                       # number of streams allocated for prefetching
system.ruby.l1_cntrl0.prefetcher.prefetches_requested            0                       # number of prefetch requests made
system.ruby.l1_cntrl0.prefetcher.prefetches_accepted            0                       # number of prefetch requests accepted
system.ruby.l1_cntrl0.prefetcher.dropped_prefetches            0                       # number of prefetch requests dropped
system.ruby.l1_cntrl0.prefetcher.hits               0                       # number of prefetched blocks accessed
system.ruby.l1_cntrl0.prefetcher.partial_hits            0                       # number of misses observed for a block being prefetched
system.ruby.l1_cntrl0.prefetcher.pages_crossed            0                       # number of prefetches across pages
system.ruby.l1_cntrl0.prefetcher.misses_on_prefetched_blocks            0                       # number of misses for blocks that were prefetched, yet missed
system.ruby.network.routers0.percent_links_utilized     0.103048                      
system.ruby.network.routers0.msg_count.Control::0         7015                      
system.ruby.network.routers0.msg_count.Request_Control::0          309                      
system.ruby.network.routers0.msg_count.Response_Data::1         7400                      
system.ruby.network.routers0.msg_count.Response_Control::1          955                      
system.ruby.network.routers0.msg_count.Response_Control::2         1482                      
system.ruby.network.routers0.msg_count.Writeback_Data::0          585                      
system.ruby.network.routers0.msg_count.Writeback_Control::0          237                      
system.ruby.network.routers0.msg_bytes.Control::0        56120                      
system.ruby.network.routers0.msg_bytes.Request_Control::0         2472                      
system.ruby.network.routers0.msg_bytes.Response_Data::1      1006400                      
system.ruby.network.routers0.msg_bytes.Response_Control::1         7640                      
system.ruby.network.routers0.msg_bytes.Response_Control::2        11856                      
system.ruby.network.routers0.msg_bytes.Writeback_Data::0        79560                      
system.ruby.network.routers0.msg_bytes.Writeback_Control::0         1896                      
system.ruby.l2_cntrl0.L2cache.demand_hits         6508                       # Number of cache demand hits
system.ruby.l2_cntrl0.L2cache.demand_misses         2338                       # Number of cache demand misses
system.ruby.l2_cntrl0.L2cache.demand_accesses         8846                       # Number of cache demand accesses
system.ruby.network.routers1.percent_links_utilized     0.147849                      
system.ruby.network.routers1.msg_count.Control::0        10522                      
system.ruby.network.routers1.msg_count.Request_Control::0          823                      
system.ruby.network.routers1.msg_count.Response_Data::1        10204                      
system.ruby.network.routers1.msg_count.Response_Control::1         1581                      
system.ruby.network.routers1.msg_count.Response_Control::2         3146                      
system.ruby.network.routers1.msg_count.Writeback_Data::0         1129                      
system.ruby.network.routers1.msg_count.Writeback_Control::0          373                      
system.ruby.network.routers1.msg_bytes.Control::0        84176                      
system.ruby.network.routers1.msg_bytes.Request_Control::0         6584                      
system.ruby.network.routers1.msg_bytes.Response_Data::1      1387744                      
system.ruby.network.routers1.msg_bytes.Response_Control::1        12648                      
system.ruby.network.routers1.msg_bytes.Response_Control::2        25168                      
system.ruby.network.routers1.msg_bytes.Writeback_Data::0       153544                      
system.ruby.network.routers1.msg_bytes.Writeback_Control::0         2984                      
system.ruby.dir_cntrl0.memBuffer.clk_domain.clock         2500                       # Clock period in ticks
system.ruby.dir_cntrl0.memBuffer.memReq          1676                       # Total number of memory requests
system.ruby.dir_cntrl0.memBuffer.memRead         1676                       # Number of memory reads
system.ruby.dir_cntrl0.memBuffer.memRefresh        12679                       # Number of memory refreshes
system.ruby.dir_cntrl0.memBuffer.memWaitCycles          442                       # Delay stalled at the head of the bank queue
system.ruby.dir_cntrl0.memBuffer.memInputQ           23                       # Delay in the input queue
system.ruby.dir_cntrl0.memBuffer.memBankQ            1                       # Delay behind the head of the bank queue
system.ruby.dir_cntrl0.memBuffer.totalStalls          466                       # Total number of stall cycles
system.ruby.dir_cntrl0.memBuffer.stallsPerReq     0.278043                       # Expected number of stall cycles per request
system.ruby.dir_cntrl0.memBuffer.memBankBusy          180                       # memory stalls due to busy bank
system.ruby.dir_cntrl0.memBuffer.memBusBusy          150                       # memory stalls due to busy bus
system.ruby.dir_cntrl0.memBuffer.memDataBusBusy           53                       # memory stalls due to read read turnaround
system.ruby.dir_cntrl0.memBuffer.memArbWait           59                       # memory stalls due to arbitration
system.ruby.dir_cntrl0.memBuffer.memBankCount |          49      2.92%      2.92% |          54      3.22%      6.15% |          54      3.22%      9.37% |          56      3.34%     12.71% |          51      3.04%     15.75% |          50      2.98%     18.74% |          47      2.80%     21.54% |          50      2.98%     24.52% |          50      2.98%     27.51% |          49      2.92%     30.43% |          57      3.40%     33.83% |          50      2.98%     36.81% |          47      2.80%     39.62% |          50      2.98%     42.60% |          55      3.28%     45.88% |          54      3.22%     49.11% |          60      3.58%     52.68% |          62      3.70%     56.38% |          50      2.98%     59.37% |          54      3.22%     62.59% |          42      2.51%     65.10% |          44      2.63%     67.72% |          52      3.10%     70.82% |          59      3.52%     74.34% |          61      3.64%     77.98% |          56      3.34%     81.32% |          54      3.22%     84.55% |          50      2.98%     87.53% |          48      2.86%     90.39% |          52      3.10%     93.50% |          56      3.34%     96.84% |          53      3.16%    100.00% # Number of accesses per bank
system.ruby.dir_cntrl0.memBuffer.memBankCount::total         1676                       # Number of accesses per bank
system.ruby.network.routers2.percent_links_utilized     0.021330                      
system.ruby.network.routers2.msg_count.Control::0         1676                      
system.ruby.network.routers2.msg_count.Response_Data::1         1676                      
system.ruby.network.routers2.msg_bytes.Control::0        13408                      
system.ruby.network.routers2.msg_bytes.Response_Data::1       227936                      
system.ruby.l1_cntrl_sp00.L1Dcache.demand_hits          578                       # Number of cache demand hits
system.ruby.l1_cntrl_sp00.L1Dcache.demand_misses          158                       # Number of cache demand misses
system.ruby.l1_cntrl_sp00.L1Dcache.demand_accesses          736                       # Number of cache demand accesses
system.ruby.l1_cntrl_sp00.L1Icache.demand_hits            0                       # Number of cache demand hits
system.ruby.l1_cntrl_sp00.L1Icache.demand_misses           12                       # Number of cache demand misses
system.ruby.l1_cntrl_sp00.L1Icache.demand_accesses           12                       # Number of cache demand accesses
system.ruby.l1_cntrl_sp00.prefetcher.miss_observed            0                       # number of misses observed
system.ruby.l1_cntrl_sp00.prefetcher.allocated_streams            0                       # number of streams allocated for prefetching
system.ruby.l1_cntrl_sp00.prefetcher.prefetches_requested            0                       # number of prefetch requests made
system.ruby.l1_cntrl_sp00.prefetcher.prefetches_accepted            0                       # number of prefetch requests accepted
system.ruby.l1_cntrl_sp00.prefetcher.dropped_prefetches            0                       # number of prefetch requests dropped
system.ruby.l1_cntrl_sp00.prefetcher.hits            0                       # number of prefetched blocks accessed
system.ruby.l1_cntrl_sp00.prefetcher.partial_hits            0                       # number of misses observed for a block being prefetched
system.ruby.l1_cntrl_sp00.prefetcher.pages_crossed            0                       # number of prefetches across pages
system.ruby.l1_cntrl_sp00.prefetcher.misses_on_prefetched_blocks            0                       # number of misses for blocks that were prefetched, yet missed
system.ruby.network.routers3.percent_links_utilized     0.003967                      
system.ruby.network.routers3.msg_count.Control::0          170                      
system.ruby.network.routers3.msg_count.Request_Control::0          116                      
system.ruby.network.routers3.msg_count.Response_Data::1          300                      
system.ruby.network.routers3.msg_count.Response_Control::1           70                      
system.ruby.network.routers3.msg_count.Response_Control::2          154                      
system.ruby.network.routers3.msg_bytes.Control::0         1360                      
system.ruby.network.routers3.msg_bytes.Request_Control::0          928                      
system.ruby.network.routers3.msg_bytes.Response_Data::1        40800                      
system.ruby.network.routers3.msg_bytes.Response_Control::1          560                      
system.ruby.network.routers3.msg_bytes.Response_Control::2         1232                      
system.ruby.l1_cntrl_sp01.L1Dcache.demand_hits          586                       # Number of cache demand hits
system.ruby.l1_cntrl_sp01.L1Dcache.demand_misses          157                       # Number of cache demand misses
system.ruby.l1_cntrl_sp01.L1Dcache.demand_accesses          743                       # Number of cache demand accesses
system.ruby.l1_cntrl_sp01.L1Icache.demand_hits            0                       # Number of cache demand hits
system.ruby.l1_cntrl_sp01.L1Icache.demand_misses           13                       # Number of cache demand misses
system.ruby.l1_cntrl_sp01.L1Icache.demand_accesses           13                       # Number of cache demand accesses
system.ruby.l1_cntrl_sp01.prefetcher.miss_observed            0                       # number of misses observed
system.ruby.l1_cntrl_sp01.prefetcher.allocated_streams            0                       # number of streams allocated for prefetching
system.ruby.l1_cntrl_sp01.prefetcher.prefetches_requested            0                       # number of prefetch requests made
system.ruby.l1_cntrl_sp01.prefetcher.prefetches_accepted            0                       # number of prefetch requests accepted
system.ruby.l1_cntrl_sp01.prefetcher.dropped_prefetches            0                       # number of prefetch requests dropped
system.ruby.l1_cntrl_sp01.prefetcher.hits            0                       # number of prefetched blocks accessed
system.ruby.l1_cntrl_sp01.prefetcher.partial_hits            0                       # number of misses observed for a block being prefetched
system.ruby.l1_cntrl_sp01.prefetcher.pages_crossed            0                       # number of prefetches across pages
system.ruby.l1_cntrl_sp01.prefetcher.misses_on_prefetched_blocks            0                       # number of misses for blocks that were prefetched, yet missed
system.ruby.network.routers4.percent_links_utilized     0.004106                      
system.ruby.network.routers4.msg_count.Control::0          170                      
system.ruby.network.routers4.msg_count.Request_Control::0          121                      
system.ruby.network.routers4.msg_count.Response_Data::1          313                      
system.ruby.network.routers4.msg_count.Response_Control::1           38                      
system.ruby.network.routers4.msg_count.Response_Control::2          157                      
system.ruby.network.routers4.msg_bytes.Control::0         1360                      
system.ruby.network.routers4.msg_bytes.Request_Control::0          968                      
system.ruby.network.routers4.msg_bytes.Response_Data::1        42568                      
system.ruby.network.routers4.msg_bytes.Response_Control::1          304                      
system.ruby.network.routers4.msg_bytes.Response_Control::2         1256                      
system.ruby.l1_cntrl_sp02.L1Dcache.demand_hits          584                       # Number of cache demand hits
system.ruby.l1_cntrl_sp02.L1Dcache.demand_misses          152                       # Number of cache demand misses
system.ruby.l1_cntrl_sp02.L1Dcache.demand_accesses          736                       # Number of cache demand accesses
system.ruby.l1_cntrl_sp02.L1Icache.demand_hits            0                       # Number of cache demand hits
system.ruby.l1_cntrl_sp02.L1Icache.demand_misses           12                       # Number of cache demand misses
system.ruby.l1_cntrl_sp02.L1Icache.demand_accesses           12                       # Number of cache demand accesses
system.ruby.l1_cntrl_sp02.prefetcher.miss_observed            0                       # number of misses observed
system.ruby.l1_cntrl_sp02.prefetcher.allocated_streams            0                       # number of streams allocated for prefetching
system.ruby.l1_cntrl_sp02.prefetcher.prefetches_requested            0                       # number of prefetch requests made
system.ruby.l1_cntrl_sp02.prefetcher.prefetches_accepted            0                       # number of prefetch requests accepted
system.ruby.l1_cntrl_sp02.prefetcher.dropped_prefetches            0                       # number of prefetch requests dropped
system.ruby.l1_cntrl_sp02.prefetcher.hits            0                       # number of prefetched blocks accessed
system.ruby.l1_cntrl_sp02.prefetcher.partial_hits            0                       # number of misses observed for a block being prefetched
system.ruby.l1_cntrl_sp02.prefetcher.pages_crossed            0                       # number of prefetches across pages
system.ruby.l1_cntrl_sp02.prefetcher.misses_on_prefetched_blocks            0                       # number of misses for blocks that were prefetched, yet missed
system.ruby.network.routers5.percent_links_utilized     0.003894                      
system.ruby.network.routers5.msg_count.Control::0          164                      
system.ruby.network.routers5.msg_count.Request_Control::0          115                      
system.ruby.network.routers5.msg_count.Response_Data::1          296                      
system.ruby.network.routers5.msg_count.Response_Control::1           47                      
system.ruby.network.routers5.msg_count.Response_Control::2          149                      
system.ruby.network.routers5.msg_bytes.Control::0         1312                      
system.ruby.network.routers5.msg_bytes.Request_Control::0          920                      
system.ruby.network.routers5.msg_bytes.Response_Data::1        40256                      
system.ruby.network.routers5.msg_bytes.Response_Control::1          376                      
system.ruby.network.routers5.msg_bytes.Response_Control::2         1192                      
system.ruby.l1_cntrl_sp03.L1Dcache.demand_hits          574                       # Number of cache demand hits
system.ruby.l1_cntrl_sp03.L1Dcache.demand_misses          162                       # Number of cache demand misses
system.ruby.l1_cntrl_sp03.L1Dcache.demand_accesses          736                       # Number of cache demand accesses
system.ruby.l1_cntrl_sp03.L1Icache.demand_hits            0                       # Number of cache demand hits
system.ruby.l1_cntrl_sp03.L1Icache.demand_misses           12                       # Number of cache demand misses
system.ruby.l1_cntrl_sp03.L1Icache.demand_accesses           12                       # Number of cache demand accesses
system.ruby.l1_cntrl_sp03.prefetcher.miss_observed            0                       # number of misses observed
system.ruby.l1_cntrl_sp03.prefetcher.allocated_streams            0                       # number of streams allocated for prefetching
system.ruby.l1_cntrl_sp03.prefetcher.prefetches_requested            0                       # number of prefetch requests made
system.ruby.l1_cntrl_sp03.prefetcher.prefetches_accepted            0                       # number of prefetch requests accepted
system.ruby.l1_cntrl_sp03.prefetcher.dropped_prefetches            0                       # number of prefetch requests dropped
system.ruby.l1_cntrl_sp03.prefetcher.hits            0                       # number of prefetched blocks accessed
system.ruby.l1_cntrl_sp03.prefetcher.partial_hits            0                       # number of misses observed for a block being prefetched
system.ruby.l1_cntrl_sp03.prefetcher.pages_crossed            0                       # number of prefetches across pages
system.ruby.l1_cntrl_sp03.prefetcher.misses_on_prefetched_blocks            0                       # number of misses for blocks that were prefetched, yet missed
system.ruby.network.routers6.percent_links_utilized     0.004155                      
system.ruby.network.routers6.msg_count.Control::0          174                      
system.ruby.network.routers6.msg_count.Request_Control::0          120                      
system.ruby.network.routers6.msg_count.Response_Data::1          316                      
system.ruby.network.routers6.msg_count.Response_Control::1           51                      
system.ruby.network.routers6.msg_count.Response_Control::2          160                      
system.ruby.network.routers6.msg_bytes.Control::0         1392                      
system.ruby.network.routers6.msg_bytes.Request_Control::0          960                      
system.ruby.network.routers6.msg_bytes.Response_Data::1        42976                      
system.ruby.network.routers6.msg_bytes.Response_Control::1          408                      
system.ruby.network.routers6.msg_bytes.Response_Control::2         1280                      
system.ruby.l1_pw_cntrl.L1Dcache.demand_hits            0                       # Number of cache demand hits
system.ruby.l1_pw_cntrl.L1Dcache.demand_misses            0                       # Number of cache demand misses
system.ruby.l1_pw_cntrl.L1Dcache.demand_accesses            0                       # Number of cache demand accesses
system.ruby.l1_pw_cntrl.L1Icache.demand_hits            0                       # Number of cache demand hits
system.ruby.l1_pw_cntrl.L1Icache.demand_misses            0                       # Number of cache demand misses
system.ruby.l1_pw_cntrl.L1Icache.demand_accesses            0                       # Number of cache demand accesses
system.ruby.l1_pw_cntrl.prefetcher.miss_observed            0                       # number of misses observed
system.ruby.l1_pw_cntrl.prefetcher.allocated_streams            0                       # number of streams allocated for prefetching
system.ruby.l1_pw_cntrl.prefetcher.prefetches_requested            0                       # number of prefetch requests made
system.ruby.l1_pw_cntrl.prefetcher.prefetches_accepted            0                       # number of prefetch requests accepted
system.ruby.l1_pw_cntrl.prefetcher.dropped_prefetches            0                       # number of prefetch requests dropped
system.ruby.l1_pw_cntrl.prefetcher.hits             0                       # number of prefetched blocks accessed
system.ruby.l1_pw_cntrl.prefetcher.partial_hits            0                       # number of misses observed for a block being prefetched
system.ruby.l1_pw_cntrl.prefetcher.pages_crossed            0                       # number of prefetches across pages
system.ruby.l1_pw_cntrl.prefetcher.misses_on_prefetched_blocks            0                       # number of misses for blocks that were prefetched, yet missed
system.ruby.network.routers7.percent_links_utilized            0                      
system.ruby.network.routers8.percent_links_utilized     0.023256                      
system.ruby.network.routers8.msg_count.Control::0         1153                      
system.ruby.network.routers8.msg_count.Request_Control::0           51                      
system.ruby.network.routers8.msg_count.Response_Data::1         1203                      
system.ruby.network.routers8.msg_count.Response_Control::1          808                      
system.ruby.network.routers8.msg_count.Response_Control::2         1044                      
system.ruby.network.routers8.msg_count.Writeback_Data::0          544                      
system.ruby.network.routers8.msg_count.Writeback_Control::0          136                      
system.ruby.network.routers8.msg_bytes.Control::0         9224                      
system.ruby.network.routers8.msg_bytes.Request_Control::0          408                      
system.ruby.network.routers8.msg_bytes.Response_Data::1       163608                      
system.ruby.network.routers8.msg_bytes.Response_Control::1         6464                      
system.ruby.network.routers8.msg_bytes.Response_Control::2         8352                      
system.ruby.network.routers8.msg_bytes.Writeback_Data::0        73984                      
system.ruby.network.routers8.msg_bytes.Writeback_Control::0         1088                      
system.ruby.network.routers9.percent_links_utilized     0.034655                      
system.ruby.network.routers9.msg_count.Control::0        10522                      
system.ruby.network.routers9.msg_count.Request_Control::0          832                      
system.ruby.network.routers9.msg_count.Response_Data::1        10866                      
system.ruby.network.routers9.msg_count.Response_Control::1         1775                      
system.ruby.network.routers9.msg_count.Response_Control::2         3146                      
system.ruby.network.routers9.msg_count.Writeback_Data::0         1129                      
system.ruby.network.routers9.msg_count.Writeback_Control::0          373                      
system.ruby.network.routers9.msg_bytes.Control::0        84176                      
system.ruby.network.routers9.msg_bytes.Request_Control::0         6656                      
system.ruby.network.routers9.msg_bytes.Response_Data::1      1477776                      
system.ruby.network.routers9.msg_bytes.Response_Control::1        14200                      
system.ruby.network.routers9.msg_bytes.Response_Control::2        25168                      
system.ruby.network.routers9.msg_bytes.Writeback_Data::0       153544                      
system.ruby.network.routers9.msg_bytes.Writeback_Control::0         2984                      
system.ruby.network.msg_count.Control           31566                      
system.ruby.network.msg_count.Request_Control         2487                      
system.ruby.network.msg_count.Response_Data        32574                      
system.ruby.network.msg_count.Response_Control        14763                      
system.ruby.network.msg_count.Writeback_Data         3387                      
system.ruby.network.msg_count.Writeback_Control         1119                      
system.ruby.network.msg_byte.Control           252528                      
system.ruby.network.msg_byte.Request_Control        19896                      
system.ruby.network.msg_byte.Response_Data      4430064                      
system.ruby.network.msg_byte.Response_Control       118104                      
system.ruby.network.msg_byte.Writeback_Data       460632                      
system.ruby.network.msg_byte.Writeback_Control         8952                      
system.ruby.memctrl_clk_domain.clock             1500                       # Clock period in ticks
system.cpu_voltage_domain.voltage                   1                       # Voltage in Volts
system.gpu.voltage_domain.voltage                   1                       # Voltage in Volts
system.gpu.clk_domain.clock                      1429                       # Clock period in ticks
system.gpu.shader_mmu.numPagefaults                 0                       # Number of Pagefaults
system.gpu.shader_mmu.numPagewalks                169                       # Number of Pagewalks
system.gpu.shader_mmu.totalRequests               169                       # Total number of requests
system.gpu.shader_mmu.retryFailures                 0                       # Times the retry walk after a pagefault failed
system.gpu.shader_mmu.l2hits                        0                       # Hits in the shared L2
system.gpu.shader_mmu.prefetchHits                  0                       # Number of prefetch hits
system.gpu.shader_mmu.numPrefetches                 0                       # Number of prefetchs
system.gpu.shader_mmu.prefetchFaults                0                       # Number of faults caused by prefetches
system.gpu.shader_mmu.pagefaultLatency::samples            0                       # Latency to complete the pagefault
system.gpu.shader_mmu.pagefaultLatency::mean          nan                       # Latency to complete the pagefault
system.gpu.shader_mmu.pagefaultLatency::gmean          nan                       # Latency to complete the pagefault
system.gpu.shader_mmu.pagefaultLatency::stdev          nan                       # Latency to complete the pagefault
system.gpu.shader_mmu.pagefaultLatency::0            0                       # Latency to complete the pagefault
system.gpu.shader_mmu.pagefaultLatency::1            0                       # Latency to complete the pagefault
system.gpu.shader_mmu.pagefaultLatency::2            0                       # Latency to complete the pagefault
system.gpu.shader_mmu.pagefaultLatency::3            0                       # Latency to complete the pagefault
system.gpu.shader_mmu.pagefaultLatency::4            0                       # Latency to complete the pagefault
system.gpu.shader_mmu.pagefaultLatency::5            0                       # Latency to complete the pagefault
system.gpu.shader_mmu.pagefaultLatency::6            0                       # Latency to complete the pagefault
system.gpu.shader_mmu.pagefaultLatency::7            0                       # Latency to complete the pagefault
system.gpu.shader_mmu.pagefaultLatency::8            0                       # Latency to complete the pagefault
system.gpu.shader_mmu.pagefaultLatency::9            0                       # Latency to complete the pagefault
system.gpu.shader_mmu.pagefaultLatency::10            0                       # Latency to complete the pagefault
system.gpu.shader_mmu.pagefaultLatency::11            0                       # Latency to complete the pagefault
system.gpu.shader_mmu.pagefaultLatency::12            0                       # Latency to complete the pagefault
system.gpu.shader_mmu.pagefaultLatency::13            0                       # Latency to complete the pagefault
system.gpu.shader_mmu.pagefaultLatency::14            0                       # Latency to complete the pagefault
system.gpu.shader_mmu.pagefaultLatency::15            0                       # Latency to complete the pagefault
system.gpu.shader_mmu.pagefaultLatency::16            0                       # Latency to complete the pagefault
system.gpu.shader_mmu.pagefaultLatency::17            0                       # Latency to complete the pagefault
system.gpu.shader_mmu.pagefaultLatency::18            0                       # Latency to complete the pagefault
system.gpu.shader_mmu.pagefaultLatency::19            0                       # Latency to complete the pagefault
system.gpu.shader_mmu.pagefaultLatency::20            0                       # Latency to complete the pagefault
system.gpu.shader_mmu.pagefaultLatency::21            0                       # Latency to complete the pagefault
system.gpu.shader_mmu.pagefaultLatency::22            0                       # Latency to complete the pagefault
system.gpu.shader_mmu.pagefaultLatency::23            0                       # Latency to complete the pagefault
system.gpu.shader_mmu.pagefaultLatency::24            0                       # Latency to complete the pagefault
system.gpu.shader_mmu.pagefaultLatency::25            0                       # Latency to complete the pagefault
system.gpu.shader_mmu.pagefaultLatency::26            0                       # Latency to complete the pagefault
system.gpu.shader_mmu.pagefaultLatency::27            0                       # Latency to complete the pagefault
system.gpu.shader_mmu.pagefaultLatency::28            0                       # Latency to complete the pagefault
system.gpu.shader_mmu.pagefaultLatency::29            0                       # Latency to complete the pagefault
system.gpu.shader_mmu.pagefaultLatency::30            0                       # Latency to complete the pagefault
system.gpu.shader_mmu.pagefaultLatency::31            0                       # Latency to complete the pagefault
system.gpu.shader_mmu.pagefaultLatency::total            0                       # Latency to complete the pagefault
system.gpu.shader_mmu.concurrentWalks::samples          169                       # Number of outstanding walks
system.gpu.shader_mmu.concurrentWalks::mean            0                       # Number of outstanding walks
system.gpu.shader_mmu.concurrentWalks::gmean            0                       # Number of outstanding walks
system.gpu.shader_mmu.concurrentWalks::stdev            0                       # Number of outstanding walks
system.gpu.shader_mmu.concurrentWalks::0          169    100.00%    100.00% # Number of outstanding walks
system.gpu.shader_mmu.concurrentWalks::1            0      0.00%    100.00% # Number of outstanding walks
system.gpu.shader_mmu.concurrentWalks::2            0      0.00%    100.00% # Number of outstanding walks
system.gpu.shader_mmu.concurrentWalks::3            0      0.00%    100.00% # Number of outstanding walks
system.gpu.shader_mmu.concurrentWalks::4            0      0.00%    100.00% # Number of outstanding walks
system.gpu.shader_mmu.concurrentWalks::5            0      0.00%    100.00% # Number of outstanding walks
system.gpu.shader_mmu.concurrentWalks::6            0      0.00%    100.00% # Number of outstanding walks
system.gpu.shader_mmu.concurrentWalks::7            0      0.00%    100.00% # Number of outstanding walks
system.gpu.shader_mmu.concurrentWalks::8            0      0.00%    100.00% # Number of outstanding walks
system.gpu.shader_mmu.concurrentWalks::9            0      0.00%    100.00% # Number of outstanding walks
system.gpu.shader_mmu.concurrentWalks::10            0      0.00%    100.00% # Number of outstanding walks
system.gpu.shader_mmu.concurrentWalks::11            0      0.00%    100.00% # Number of outstanding walks
system.gpu.shader_mmu.concurrentWalks::12            0      0.00%    100.00% # Number of outstanding walks
system.gpu.shader_mmu.concurrentWalks::13            0      0.00%    100.00% # Number of outstanding walks
system.gpu.shader_mmu.concurrentWalks::14            0      0.00%    100.00% # Number of outstanding walks
system.gpu.shader_mmu.concurrentWalks::15            0      0.00%    100.00% # Number of outstanding walks
system.gpu.shader_mmu.concurrentWalks::total          169                       # Number of outstanding walks
system.gpu.shader_mmu.pagewalkLatency::samples          169                       # Latency to complete the pagewalk
system.gpu.shader_mmu.pagewalkLatency::mean            0                       # Latency to complete the pagewalk
system.gpu.shader_mmu.pagewalkLatency::gmean            0                       # Latency to complete the pagewalk
system.gpu.shader_mmu.pagewalkLatency::stdev            0                       # Latency to complete the pagewalk
system.gpu.shader_mmu.pagewalkLatency::0          169    100.00%    100.00% # Latency to complete the pagewalk
system.gpu.shader_mmu.pagewalkLatency::1            0      0.00%    100.00% # Latency to complete the pagewalk
system.gpu.shader_mmu.pagewalkLatency::2            0      0.00%    100.00% # Latency to complete the pagewalk
system.gpu.shader_mmu.pagewalkLatency::3            0      0.00%    100.00% # Latency to complete the pagewalk
system.gpu.shader_mmu.pagewalkLatency::4            0      0.00%    100.00% # Latency to complete the pagewalk
system.gpu.shader_mmu.pagewalkLatency::5            0      0.00%    100.00% # Latency to complete the pagewalk
system.gpu.shader_mmu.pagewalkLatency::6            0      0.00%    100.00% # Latency to complete the pagewalk
system.gpu.shader_mmu.pagewalkLatency::7            0      0.00%    100.00% # Latency to complete the pagewalk
system.gpu.shader_mmu.pagewalkLatency::8            0      0.00%    100.00% # Latency to complete the pagewalk
system.gpu.shader_mmu.pagewalkLatency::9            0      0.00%    100.00% # Latency to complete the pagewalk
system.gpu.shader_mmu.pagewalkLatency::10            0      0.00%    100.00% # Latency to complete the pagewalk
system.gpu.shader_mmu.pagewalkLatency::11            0      0.00%    100.00% # Latency to complete the pagewalk
system.gpu.shader_mmu.pagewalkLatency::12            0      0.00%    100.00% # Latency to complete the pagewalk
system.gpu.shader_mmu.pagewalkLatency::13            0      0.00%    100.00% # Latency to complete the pagewalk
system.gpu.shader_mmu.pagewalkLatency::14            0      0.00%    100.00% # Latency to complete the pagewalk
system.gpu.shader_mmu.pagewalkLatency::15            0      0.00%    100.00% # Latency to complete the pagewalk
system.gpu.shader_mmu.pagewalkLatency::16            0      0.00%    100.00% # Latency to complete the pagewalk
system.gpu.shader_mmu.pagewalkLatency::17            0      0.00%    100.00% # Latency to complete the pagewalk
system.gpu.shader_mmu.pagewalkLatency::18            0      0.00%    100.00% # Latency to complete the pagewalk
system.gpu.shader_mmu.pagewalkLatency::19            0      0.00%    100.00% # Latency to complete the pagewalk
system.gpu.shader_mmu.pagewalkLatency::20            0      0.00%    100.00% # Latency to complete the pagewalk
system.gpu.shader_mmu.pagewalkLatency::21            0      0.00%    100.00% # Latency to complete the pagewalk
system.gpu.shader_mmu.pagewalkLatency::22            0      0.00%    100.00% # Latency to complete the pagewalk
system.gpu.shader_mmu.pagewalkLatency::23            0      0.00%    100.00% # Latency to complete the pagewalk
system.gpu.shader_mmu.pagewalkLatency::24            0      0.00%    100.00% # Latency to complete the pagewalk
system.gpu.shader_mmu.pagewalkLatency::25            0      0.00%    100.00% # Latency to complete the pagewalk
system.gpu.shader_mmu.pagewalkLatency::26            0      0.00%    100.00% # Latency to complete the pagewalk
system.gpu.shader_mmu.pagewalkLatency::27            0      0.00%    100.00% # Latency to complete the pagewalk
system.gpu.shader_mmu.pagewalkLatency::28            0      0.00%    100.00% # Latency to complete the pagewalk
system.gpu.shader_mmu.pagewalkLatency::29            0      0.00%    100.00% # Latency to complete the pagewalk
system.gpu.shader_mmu.pagewalkLatency::30            0      0.00%    100.00% # Latency to complete the pagewalk
system.gpu.shader_mmu.pagewalkLatency::31            0      0.00%    100.00% # Latency to complete the pagewalk
system.gpu.shader_mmu.pagewalkLatency::total          169                       # Latency to complete the pagewalk
system.gpu.kernels_completed                        2                       # Number of kernels completed
system.gpu.shader_cores0.itb.hits                   0                       # Number of hits in this TLB
system.gpu.shader_cores0.itb.misses                 0                       # Number of misses in this TLB
system.gpu.shader_cores0.itb.hitRate              nan                       # Hit rate for this TLB
system.gpu.shader_cores0.local_loads                0                       # Number of loads from local space
system.gpu.shader_cores0.local_stores               0                       # Number of stores to local space
system.gpu.shader_cores0.shared_loads            5056                       # Number of loads from shared space
system.gpu.shader_cores0.shared_stores           3072                       # Number of stores to shared space
system.gpu.shader_cores0.param_kernel_loads         7296                       # Number of loads from kernel parameter space
system.gpu.shader_cores0.param_local_loads            0                       # Number of loads from local parameter space
system.gpu.shader_cores0.param_local_stores            0                       # Number of stores to local parameter space
system.gpu.shader_cores0.const_loads                0                       # Number of loads from constant space
system.gpu.shader_cores0.tex_loads                  0                       # Number of loads from texture space
system.gpu.shader_cores0.global_loads            8256                       # Number of loads from global space
system.gpu.shader_cores0.global_stores           3136                       # Number of stores to global space
system.gpu.shader_cores0.surf_loads                 0                       # Number of loads from surface space
system.gpu.shader_cores0.generic_loads              0                       # Number of loads from generic spaces (global, shared, local)
system.gpu.shader_cores0.generic_stores             0                       # Number of stores to generic spaces (global, shared, local)
system.gpu.shader_cores0.inst_cache_requests           12                       # Number of instruction cache requests sent
system.gpu.shader_cores0.inst_cache_retries            0                       # Number of instruction cache retries
system.gpu.shader_cores0.inst_counts::0             0                       # Inst counts: 1: ALU, 2: MAD, 3: CTRL, 4: SFU, 5: MEM, 6: TEX, 7: NOP
system.gpu.shader_cores0.inst_counts::1        130176                       # Inst counts: 1: ALU, 2: MAD, 3: CTRL, 4: SFU, 5: MEM, 6: TEX, 7: NOP
system.gpu.shader_cores0.inst_counts::2          2048                       # Inst counts: 1: ALU, 2: MAD, 3: CTRL, 4: SFU, 5: MEM, 6: TEX, 7: NOP
system.gpu.shader_cores0.inst_counts::3         20416                       # Inst counts: 1: ALU, 2: MAD, 3: CTRL, 4: SFU, 5: MEM, 6: TEX, 7: NOP
system.gpu.shader_cores0.inst_counts::4          6144                       # Inst counts: 1: ALU, 2: MAD, 3: CTRL, 4: SFU, 5: MEM, 6: TEX, 7: NOP
system.gpu.shader_cores0.inst_counts::5         26816                       # Inst counts: 1: ALU, 2: MAD, 3: CTRL, 4: SFU, 5: MEM, 6: TEX, 7: NOP
system.gpu.shader_cores0.inst_counts::6             0                       # Inst counts: 1: ALU, 2: MAD, 3: CTRL, 4: SFU, 5: MEM, 6: TEX, 7: NOP
system.gpu.shader_cores0.inst_counts::7             0                       # Inst counts: 1: ALU, 2: MAD, 3: CTRL, 4: SFU, 5: MEM, 6: TEX, 7: NOP
system.gpu.shader_cores0.activeCycles            6172                       # Number of cycles this shader was executing a CTA
system.gpu.shader_cores0.notStalledCycles         4652                       # Number of cycles this shader was actually executing at least one instance
system.gpu.shader_cores0.instInstances         185600                       # Total instructions executed by all PEs in the core
system.gpu.shader_cores0.instPerCycle       30.071290                       # Instruction instances per cycle
system.gpu.shader_cores0.kernels_completed            2                       # Number of kernels completed
system.gpu.shader_cores0.lsq.data_tlb.hits            0                       # Number of hits in this TLB
system.gpu.shader_cores0.lsq.data_tlb.misses            0                       # Number of misses in this TLB
system.gpu.shader_cores0.lsq.data_tlb.hitRate          nan                       # Hit rate for this TLB
system.gpu.shader_cores0.lsq.warpInstBufActive::samples      7575645                       # Histogram of number of active warp inst buffers at a given time
system.gpu.shader_cores0.lsq.warpInstBufActive::mean     6.788580                       # Histogram of number of active warp inst buffers at a given time
system.gpu.shader_cores0.lsq.warpInstBufActive::gmean          nan                       # Histogram of number of active warp inst buffers at a given time
system.gpu.shader_cores0.lsq.warpInstBufActive::stdev    10.438301                       # Histogram of number of active warp inst buffers at a given time
system.gpu.shader_cores0.lsq.warpInstBufActive::0      2964507     39.13%     39.13% # Histogram of number of active warp inst buffers at a given time
system.gpu.shader_cores0.lsq.warpInstBufActive::1       966963     12.76%     51.90% # Histogram of number of active warp inst buffers at a given time
system.gpu.shader_cores0.lsq.warpInstBufActive::2       556612      7.35%     59.24% # Histogram of number of active warp inst buffers at a given time
system.gpu.shader_cores0.lsq.warpInstBufActive::3       252038      3.33%     62.57% # Histogram of number of active warp inst buffers at a given time
system.gpu.shader_cores0.lsq.warpInstBufActive::4       219753      2.90%     65.47% # Histogram of number of active warp inst buffers at a given time
system.gpu.shader_cores0.lsq.warpInstBufActive::5       184526      2.44%     67.91% # Histogram of number of active warp inst buffers at a given time
system.gpu.shader_cores0.lsq.warpInstBufActive::6       168992      2.23%     70.14% # Histogram of number of active warp inst buffers at a given time
system.gpu.shader_cores0.lsq.warpInstBufActive::7       144035      1.90%     72.04% # Histogram of number of active warp inst buffers at a given time
system.gpu.shader_cores0.lsq.warpInstBufActive::8       279225      3.69%     75.72% # Histogram of number of active warp inst buffers at a given time
system.gpu.shader_cores0.lsq.warpInstBufActive::9       141096      1.86%     77.59% # Histogram of number of active warp inst buffers at a given time
system.gpu.shader_cores0.lsq.warpInstBufActive::10       104057      1.37%     78.96% # Histogram of number of active warp inst buffers at a given time
system.gpu.shader_cores0.lsq.warpInstBufActive::11        73756      0.97%     79.93% # Histogram of number of active warp inst buffers at a given time
system.gpu.shader_cores0.lsq.warpInstBufActive::12        84264      1.11%     81.05% # Histogram of number of active warp inst buffers at a given time
system.gpu.shader_cores0.lsq.warpInstBufActive::13        54999      0.73%     81.77% # Histogram of number of active warp inst buffers at a given time
system.gpu.shader_cores0.lsq.warpInstBufActive::14        69541      0.92%     82.69% # Histogram of number of active warp inst buffers at a given time
system.gpu.shader_cores0.lsq.warpInstBufActive::15        47515      0.63%     83.32% # Histogram of number of active warp inst buffers at a given time
system.gpu.shader_cores0.lsq.warpInstBufActive::16        83473      1.10%     84.42% # Histogram of number of active warp inst buffers at a given time
system.gpu.shader_cores0.lsq.warpInstBufActive::17        25399      0.34%     84.76% # Histogram of number of active warp inst buffers at a given time
system.gpu.shader_cores0.lsq.warpInstBufActive::18        17878      0.24%     84.99% # Histogram of number of active warp inst buffers at a given time
system.gpu.shader_cores0.lsq.warpInstBufActive::19         5605      0.07%     85.07% # Histogram of number of active warp inst buffers at a given time
system.gpu.shader_cores0.lsq.warpInstBufActive::20        11415      0.15%     85.22% # Histogram of number of active warp inst buffers at a given time
system.gpu.shader_cores0.lsq.warpInstBufActive::21         9990      0.13%     85.35% # Histogram of number of active warp inst buffers at a given time
system.gpu.shader_cores0.lsq.warpInstBufActive::22        17236      0.23%     85.58% # Histogram of number of active warp inst buffers at a given time
system.gpu.shader_cores0.lsq.warpInstBufActive::23         8737      0.12%     85.69% # Histogram of number of active warp inst buffers at a given time
system.gpu.shader_cores0.lsq.warpInstBufActive::24         8273      0.11%     85.80% # Histogram of number of active warp inst buffers at a given time
system.gpu.shader_cores0.lsq.warpInstBufActive::25        16291      0.22%     86.01% # Histogram of number of active warp inst buffers at a given time
system.gpu.shader_cores0.lsq.warpInstBufActive::26        31578      0.42%     86.43% # Histogram of number of active warp inst buffers at a given time
system.gpu.shader_cores0.lsq.warpInstBufActive::27        39315      0.52%     86.95% # Histogram of number of active warp inst buffers at a given time
system.gpu.shader_cores0.lsq.warpInstBufActive::28        77294      1.02%     87.97% # Histogram of number of active warp inst buffers at a given time
system.gpu.shader_cores0.lsq.warpInstBufActive::29       105573      1.39%     89.36% # Histogram of number of active warp inst buffers at a given time
system.gpu.shader_cores0.lsq.warpInstBufActive::30       194082      2.56%     91.93% # Histogram of number of active warp inst buffers at a given time
system.gpu.shader_cores0.lsq.warpInstBufActive::31       322890      4.26%     96.19% # Histogram of number of active warp inst buffers at a given time
system.gpu.shader_cores0.lsq.warpInstBufActive::32       288737      3.81%    100.00% # Histogram of number of active warp inst buffers at a given time
system.gpu.shader_cores0.lsq.warpInstBufActive::33            0      0.00%    100.00% # Histogram of number of active warp inst buffers at a given time
system.gpu.shader_cores0.lsq.warpInstBufActive::34            0      0.00%    100.00% # Histogram of number of active warp inst buffers at a given time
system.gpu.shader_cores0.lsq.warpInstBufActive::35            0      0.00%    100.00% # Histogram of number of active warp inst buffers at a given time
system.gpu.shader_cores0.lsq.warpInstBufActive::36            0      0.00%    100.00% # Histogram of number of active warp inst buffers at a given time
system.gpu.shader_cores0.lsq.warpInstBufActive::37            0      0.00%    100.00% # Histogram of number of active warp inst buffers at a given time
system.gpu.shader_cores0.lsq.warpInstBufActive::38            0      0.00%    100.00% # Histogram of number of active warp inst buffers at a given time
system.gpu.shader_cores0.lsq.warpInstBufActive::39            0      0.00%    100.00% # Histogram of number of active warp inst buffers at a given time
system.gpu.shader_cores0.lsq.warpInstBufActive::40            0      0.00%    100.00% # Histogram of number of active warp inst buffers at a given time
system.gpu.shader_cores0.lsq.warpInstBufActive::41            0      0.00%    100.00% # Histogram of number of active warp inst buffers at a given time
system.gpu.shader_cores0.lsq.warpInstBufActive::42            0      0.00%    100.00% # Histogram of number of active warp inst buffers at a given time
system.gpu.shader_cores0.lsq.warpInstBufActive::43            0      0.00%    100.00% # Histogram of number of active warp inst buffers at a given time
system.gpu.shader_cores0.lsq.warpInstBufActive::44            0      0.00%    100.00% # Histogram of number of active warp inst buffers at a given time
system.gpu.shader_cores0.lsq.warpInstBufActive::45            0      0.00%    100.00% # Histogram of number of active warp inst buffers at a given time
system.gpu.shader_cores0.lsq.warpInstBufActive::46            0      0.00%    100.00% # Histogram of number of active warp inst buffers at a given time
system.gpu.shader_cores0.lsq.warpInstBufActive::47            0      0.00%    100.00% # Histogram of number of active warp inst buffers at a given time
system.gpu.shader_cores0.lsq.warpInstBufActive::48            0      0.00%    100.00% # Histogram of number of active warp inst buffers at a given time
system.gpu.shader_cores0.lsq.warpInstBufActive::49            0      0.00%    100.00% # Histogram of number of active warp inst buffers at a given time
system.gpu.shader_cores0.lsq.warpInstBufActive::50            0      0.00%    100.00% # Histogram of number of active warp inst buffers at a given time
system.gpu.shader_cores0.lsq.warpInstBufActive::51            0      0.00%    100.00% # Histogram of number of active warp inst buffers at a given time
system.gpu.shader_cores0.lsq.warpInstBufActive::52            0      0.00%    100.00% # Histogram of number of active warp inst buffers at a given time
system.gpu.shader_cores0.lsq.warpInstBufActive::53            0      0.00%    100.00% # Histogram of number of active warp inst buffers at a given time
system.gpu.shader_cores0.lsq.warpInstBufActive::54            0      0.00%    100.00% # Histogram of number of active warp inst buffers at a given time
system.gpu.shader_cores0.lsq.warpInstBufActive::55            0      0.00%    100.00% # Histogram of number of active warp inst buffers at a given time
system.gpu.shader_cores0.lsq.warpInstBufActive::56            0      0.00%    100.00% # Histogram of number of active warp inst buffers at a given time
system.gpu.shader_cores0.lsq.warpInstBufActive::57            0      0.00%    100.00% # Histogram of number of active warp inst buffers at a given time
system.gpu.shader_cores0.lsq.warpInstBufActive::58            0      0.00%    100.00% # Histogram of number of active warp inst buffers at a given time
system.gpu.shader_cores0.lsq.warpInstBufActive::59            0      0.00%    100.00% # Histogram of number of active warp inst buffers at a given time
system.gpu.shader_cores0.lsq.warpInstBufActive::60            0      0.00%    100.00% # Histogram of number of active warp inst buffers at a given time
system.gpu.shader_cores0.lsq.warpInstBufActive::61            0      0.00%    100.00% # Histogram of number of active warp inst buffers at a given time
system.gpu.shader_cores0.lsq.warpInstBufActive::62            0      0.00%    100.00% # Histogram of number of active warp inst buffers at a given time
system.gpu.shader_cores0.lsq.warpInstBufActive::63            0      0.00%    100.00% # Histogram of number of active warp inst buffers at a given time
system.gpu.shader_cores0.lsq.warpInstBufActive::64            0      0.00%    100.00% # Histogram of number of active warp inst buffers at a given time
system.gpu.shader_cores0.lsq.warpInstBufActive::total      7575645                       # Histogram of number of active warp inst buffers at a given time
system.gpu.shader_cores0.lsq.cacheAccesses     0.001909                       # Average number of concurrent outstanding cache accesses
system.gpu.shader_cores0.lsq.writebackBlockedCycles           10                       # Number of cycles blocked for core writeback stage
system.gpu.shader_cores0.lsq.mshrHitQueued          178                       # Number of hits on blocked lines in MSHRs
system.gpu.shader_cores0.lsq.mshrsFullCycles            0                       # Number of cycles stalled waiting for an MSHR
system.gpu.shader_cores0.lsq.mshrsFullCount            0                       # Number of times MSHRs filled
system.gpu.shader_cores0.lsq.warpCoalescedAccesses::samples          416                       # Number of coalesced accesses per warp instruction
system.gpu.shader_cores0.lsq.warpCoalescedAccesses::mean     1.769231                       # Number of coalesced accesses per warp instruction
system.gpu.shader_cores0.lsq.warpCoalescedAccesses::gmean     1.608176                       # Number of coalesced accesses per warp instruction
system.gpu.shader_cores0.lsq.warpCoalescedAccesses::stdev     0.763388                       # Number of coalesced accesses per warp instruction
system.gpu.shader_cores0.lsq.warpCoalescedAccesses::0            0      0.00%      0.00% # Number of coalesced accesses per warp instruction
system.gpu.shader_cores0.lsq.warpCoalescedAccesses::1          180     43.27%     43.27% # Number of coalesced accesses per warp instruction
system.gpu.shader_cores0.lsq.warpCoalescedAccesses::2          152     36.54%     79.81% # Number of coalesced accesses per warp instruction
system.gpu.shader_cores0.lsq.warpCoalescedAccesses::3           84     20.19%    100.00% # Number of coalesced accesses per warp instruction
system.gpu.shader_cores0.lsq.warpCoalescedAccesses::4            0      0.00%    100.00% # Number of coalesced accesses per warp instruction
system.gpu.shader_cores0.lsq.warpCoalescedAccesses::5            0      0.00%    100.00% # Number of coalesced accesses per warp instruction
system.gpu.shader_cores0.lsq.warpCoalescedAccesses::6            0      0.00%    100.00% # Number of coalesced accesses per warp instruction
system.gpu.shader_cores0.lsq.warpCoalescedAccesses::7            0      0.00%    100.00% # Number of coalesced accesses per warp instruction
system.gpu.shader_cores0.lsq.warpCoalescedAccesses::8            0      0.00%    100.00% # Number of coalesced accesses per warp instruction
system.gpu.shader_cores0.lsq.warpCoalescedAccesses::9            0      0.00%    100.00% # Number of coalesced accesses per warp instruction
system.gpu.shader_cores0.lsq.warpCoalescedAccesses::10            0      0.00%    100.00% # Number of coalesced accesses per warp instruction
system.gpu.shader_cores0.lsq.warpCoalescedAccesses::11            0      0.00%    100.00% # Number of coalesced accesses per warp instruction
system.gpu.shader_cores0.lsq.warpCoalescedAccesses::12            0      0.00%    100.00% # Number of coalesced accesses per warp instruction
system.gpu.shader_cores0.lsq.warpCoalescedAccesses::13            0      0.00%    100.00% # Number of coalesced accesses per warp instruction
system.gpu.shader_cores0.lsq.warpCoalescedAccesses::14            0      0.00%    100.00% # Number of coalesced accesses per warp instruction
system.gpu.shader_cores0.lsq.warpCoalescedAccesses::15            0      0.00%    100.00% # Number of coalesced accesses per warp instruction
system.gpu.shader_cores0.lsq.warpCoalescedAccesses::16            0      0.00%    100.00% # Number of coalesced accesses per warp instruction
system.gpu.shader_cores0.lsq.warpCoalescedAccesses::17            0      0.00%    100.00% # Number of coalesced accesses per warp instruction
system.gpu.shader_cores0.lsq.warpCoalescedAccesses::18            0      0.00%    100.00% # Number of coalesced accesses per warp instruction
system.gpu.shader_cores0.lsq.warpCoalescedAccesses::19            0      0.00%    100.00% # Number of coalesced accesses per warp instruction
system.gpu.shader_cores0.lsq.warpCoalescedAccesses::20            0      0.00%    100.00% # Number of coalesced accesses per warp instruction
system.gpu.shader_cores0.lsq.warpCoalescedAccesses::21            0      0.00%    100.00% # Number of coalesced accesses per warp instruction
system.gpu.shader_cores0.lsq.warpCoalescedAccesses::22            0      0.00%    100.00% # Number of coalesced accesses per warp instruction
system.gpu.shader_cores0.lsq.warpCoalescedAccesses::23            0      0.00%    100.00% # Number of coalesced accesses per warp instruction
system.gpu.shader_cores0.lsq.warpCoalescedAccesses::24            0      0.00%    100.00% # Number of coalesced accesses per warp instruction
system.gpu.shader_cores0.lsq.warpCoalescedAccesses::25            0      0.00%    100.00% # Number of coalesced accesses per warp instruction
system.gpu.shader_cores0.lsq.warpCoalescedAccesses::26            0      0.00%    100.00% # Number of coalesced accesses per warp instruction
system.gpu.shader_cores0.lsq.warpCoalescedAccesses::27            0      0.00%    100.00% # Number of coalesced accesses per warp instruction
system.gpu.shader_cores0.lsq.warpCoalescedAccesses::28            0      0.00%    100.00% # Number of coalesced accesses per warp instruction
system.gpu.shader_cores0.lsq.warpCoalescedAccesses::29            0      0.00%    100.00% # Number of coalesced accesses per warp instruction
system.gpu.shader_cores0.lsq.warpCoalescedAccesses::30            0      0.00%    100.00% # Number of coalesced accesses per warp instruction
system.gpu.shader_cores0.lsq.warpCoalescedAccesses::31            0      0.00%    100.00% # Number of coalesced accesses per warp instruction
system.gpu.shader_cores0.lsq.warpCoalescedAccesses::32            0      0.00%    100.00% # Number of coalesced accesses per warp instruction
system.gpu.shader_cores0.lsq.warpCoalescedAccesses::total          416                       # Number of coalesced accesses per warp instruction
system.gpu.shader_cores0.lsq.warpLatencyRead::samples          288                       # Latency in cycles for whole warp to finish the read
system.gpu.shader_cores0.lsq.warpLatencyRead::mean   103.277778                       # Latency in cycles for whole warp to finish the read
system.gpu.shader_cores0.lsq.warpLatencyRead::gmean    44.125212                       # Latency in cycles for whole warp to finish the read
system.gpu.shader_cores0.lsq.warpLatencyRead::stdev   127.028842                       # Latency in cycles for whole warp to finish the read
system.gpu.shader_cores0.lsq.warpLatencyRead::0-31          162     56.25%     56.25% # Latency in cycles for whole warp to finish the read
system.gpu.shader_cores0.lsq.warpLatencyRead::32-63           11      3.82%     60.07% # Latency in cycles for whole warp to finish the read
system.gpu.shader_cores0.lsq.warpLatencyRead::64-95            8      2.78%     62.85% # Latency in cycles for whole warp to finish the read
system.gpu.shader_cores0.lsq.warpLatencyRead::96-127           14      4.86%     67.71% # Latency in cycles for whole warp to finish the read
system.gpu.shader_cores0.lsq.warpLatencyRead::128-159           23      7.99%     75.69% # Latency in cycles for whole warp to finish the read
system.gpu.shader_cores0.lsq.warpLatencyRead::160-191            9      3.12%     78.82% # Latency in cycles for whole warp to finish the read
system.gpu.shader_cores0.lsq.warpLatencyRead::192-223            7      2.43%     81.25% # Latency in cycles for whole warp to finish the read
system.gpu.shader_cores0.lsq.warpLatencyRead::224-255           11      3.82%     85.07% # Latency in cycles for whole warp to finish the read
system.gpu.shader_cores0.lsq.warpLatencyRead::256-287            4      1.39%     86.46% # Latency in cycles for whole warp to finish the read
system.gpu.shader_cores0.lsq.warpLatencyRead::288-319            5      1.74%     88.19% # Latency in cycles for whole warp to finish the read
system.gpu.shader_cores0.lsq.warpLatencyRead::320-351            3      1.04%     89.24% # Latency in cycles for whole warp to finish the read
system.gpu.shader_cores0.lsq.warpLatencyRead::352-383           17      5.90%     95.14% # Latency in cycles for whole warp to finish the read
system.gpu.shader_cores0.lsq.warpLatencyRead::384-415           12      4.17%     99.31% # Latency in cycles for whole warp to finish the read
system.gpu.shader_cores0.lsq.warpLatencyRead::416-447            0      0.00%     99.31% # Latency in cycles for whole warp to finish the read
[...]
system.ruby.L1Cache_Controller.Fwd_GETX::total          215                      
system.ruby.L1Cache_Controller.Fwd_GETS  |         187     44.21%     44.21% |          56     13.24%     57.45% |          51     12.06%     69.50% |          49     11.58%     81.09% |          55     13.00%     94.09% |           0      0.00%     94.09% |          25      5.91%    100.00%
system.ruby.L1Cache_Controller.Fwd_GETS::total          423                      
system.ruby.L1Cache_Controller.Data      |           4      3.92%      3.92% |           0      0.00%      3.92% |           0      0.00%      3.92% |           0      0.00%      3.92% |           0      0.00%      3.92% |           0      0.00%      3.92% |          98     96.08%    100.00%
system.ruby.L1Cache_Controller.Data::total          102                      
system.ruby.L1Cache_Controller.Data_Exclusive |         633     53.92%     53.92% |          93      7.92%     61.84% |         108      9.20%     71.04% |          97      8.26%     79.30% |         107      9.11%     88.42% |           0      0.00%     88.42% |         136     11.58%    100.00%
system.ruby.L1Cache_Controller.Data_Exclusive::total         1174                      
system.ruby.L1Cache_Controller.DataS_fromL1 |          12      2.84%      2.84% |          21      4.96%      7.80% |          20      4.73%     12.53% |          19      4.49%     17.02% |          19      4.49%     21.51% |           0      0.00%     21.51% |         332     78.49%    100.00%
system.ruby.L1Cache_Controller.DataS_fromL1::total          423                      
system.ruby.L1Cache_Controller.Data_all_Acks |        6357     89.94%     89.94% |          28      0.40%     90.34% |          33      0.47%     90.80% |          33      0.47%     91.27% |          30      0.42%     91.69% |           0      0.00%     91.69% |         587      8.31%    100.00%
system.ruby.L1Cache_Controller.Data_all_Acks::total         7068                      
system.ruby.L1Cache_Controller.Ack       |          18     19.57%     19.57% |          28     30.43%     50.00% |           9      9.78%     59.78% |          15     16.30%     76.09% |          18     19.57%     95.65% |           0      0.00%     95.65% |           4      4.35%    100.00%
system.ruby.L1Cache_Controller.Ack::total           92                      
system.ruby.L1Cache_Controller.Ack_all   |          13      7.18%      7.18% |          28     15.47%     22.65% |           9      4.97%     27.62% |          15      8.29%     35.91% |          18      9.94%     45.86% |           0      0.00%     45.86% |          98     54.14%    100.00%
system.ruby.L1Cache_Controller.Ack_all::total          181                      
system.ruby.L1Cache_Controller.WB_Ack    |         822     54.73%     54.73% |           0      0.00%     54.73% |           0      0.00%     54.73% |           0      0.00%     54.73% |           0      0.00%     54.73% |           0      0.00%     54.73% |         680     45.27%    100.00%
system.ruby.L1Cache_Controller.WB_Ack::total         1502                      
system.ruby.L1Cache_Controller.NP.Load   |         624     40.70%     40.70% |          81      5.28%     45.99% |          85      5.54%     51.53% |          81      5.28%     56.82% |          85      5.54%     62.36% |           0      0.00%     62.36% |         577     37.64%    100.00%
system.ruby.L1Cache_Controller.NP.Load::total         1533                      
system.ruby.L1Cache_Controller.NP.Ifetch |        5530     99.12%     99.12% |          12      0.22%     99.34% |          13      0.23%     99.57% |          12      0.22%     99.78% |          12      0.22%    100.00% |           0      0.00%    100.00% |           0      0.00%    100.00%
system.ruby.L1Cache_Controller.NP.Ifetch::total         5579                      
system.ruby.L1Cache_Controller.NP.Store  |         824     58.19%     58.19% |           4      0.28%     58.47% |           4      0.28%     58.76% |           4      0.28%     59.04% |           4      0.28%     59.32% |           0      0.00%     59.32% |         576     40.68%    100.00%
system.ruby.L1Cache_Controller.NP.Store::total         1416                      
system.ruby.L1Cache_Controller.NP.Inv    |          14     60.87%     60.87% |           0      0.00%     60.87% |           0      0.00%     60.87% |           0      0.00%     60.87% |           0      0.00%     60.87% |           0      0.00%     60.87% |           9     39.13%    100.00%
system.ruby.L1Cache_Controller.NP.Inv::total           23                      
system.ruby.L1Cache_Controller.I.Load    |          24     12.97%     12.97% |          37     20.00%     32.97% |          43     23.24%     56.22% |          38     20.54%     76.76% |          43     23.24%    100.00% |           0      0.00%    100.00% |           0      0.00%    100.00%
system.ruby.L1Cache_Controller.I.Load::total          185                      
system.ruby.L1Cache_Controller.I.Store   |           4      7.41%      7.41% |           8     14.81%     22.22% |          16     29.63%     51.85% |          14     25.93%     77.78% |          12     22.22%    100.00% |           0      0.00%    100.00% |           0      0.00%    100.00%
system.ruby.L1Cache_Controller.I.Store::total           54                      
system.ruby.L1Cache_Controller.I.L1_Replacement |          14     46.67%     46.67% |           0      0.00%     46.67% |           0      0.00%     46.67% |           0      0.00%     46.67% |           0      0.00%     46.67% |           0      0.00%     46.67% |          16     53.33%    100.00%
system.ruby.L1Cache_Controller.I.L1_Replacement::total           30                      
system.ruby.L1Cache_Controller.S.Load    |         545     46.74%     46.74% |         171     14.67%     61.41% |         148     12.69%     74.10% |         148     12.69%     86.79% |         154     13.21%    100.00% |           0      0.00%    100.00% |           0      0.00%    100.00%
system.ruby.L1Cache_Controller.S.Load::total         1166                      
system.ruby.L1Cache_Controller.S.Ifetch  |     6659581    100.00%    100.00% |           0      0.00%    100.00% |           0      0.00%    100.00% |           0      0.00%    100.00% |           0      0.00%    100.00% |           0      0.00%    100.00% |           0      0.00%    100.00%
system.ruby.L1Cache_Controller.S.Ifetch::total      6659581                      
system.ruby.L1Cache_Controller.S.Store   |           9     11.39%     11.39% |          28     35.44%     46.84% |           9     11.39%     58.23% |          15     18.99%     77.22% |          18     22.78%    100.00% |           0      0.00%    100.00% |           0      0.00%    100.00%
system.ruby.L1Cache_Controller.S.Store::total           79                      
system.ruby.L1Cache_Controller.S.Inv     |          88     51.46%     51.46% |          14      8.19%     59.65% |          20     11.70%     71.35% |          17      9.94%     81.29% |          15      8.77%     90.06% |           0      0.00%     90.06% |          17      9.94%    100.00%
system.ruby.L1Cache_Controller.S.Inv::total          171                      
system.ruby.L1Cache_Controller.S.L1_Replacement |        5381     92.30%     92.30% |           0      0.00%     92.30% |           0      0.00%     92.30% |           0      0.00%     92.30% |           0      0.00%     92.30% |           0      0.00%     92.30% |         449      7.70%    100.00%
system.ruby.L1Cache_Controller.S.L1_Replacement::total         5830                      
system.ruby.L1Cache_Controller.E.Load    |      135294     99.62%     99.62% |         125      0.09%     99.71% |         126      0.09%     99.81% |         146      0.11%     99.91% |         118      0.09%    100.00% |           0      0.00%    100.00% |           0      0.00%    100.00%
system.ruby.L1Cache_Controller.E.Load::total       135809                      
system.ruby.L1Cache_Controller.E.Store   |         309     46.89%     46.89% |          75     11.38%     58.27% |          99     15.02%     73.29% |          83     12.59%     85.89% |          93     14.11%    100.00% |           0      0.00%    100.00% |           0      0.00%    100.00%
system.ruby.L1Cache_Controller.E.Store::total          659                      
system.ruby.L1Cache_Controller.E.L1_Replacement |         237     63.54%     63.54% |           0      0.00%     63.54% |           0      0.00%     63.54% |           0      0.00%     63.54% |           0      0.00%     63.54% |           0      0.00%     63.54% |         136     36.46%    100.00%
system.ruby.L1Cache_Controller.E.L1_Replacement::total          373                      
system.ruby.L1Cache_Controller.E.Fwd_GETX |          12    100.00%    100.00% |           0      0.00%    100.00% |           0      0.00%    100.00% |           0      0.00%    100.00% |           0      0.00%    100.00% |           0      0.00%    100.00% |           0      0.00%    100.00%
system.ruby.L1Cache_Controller.E.Fwd_GETX::total           12                      
system.ruby.L1Cache_Controller.E.Fwd_GETS |           3      5.17%      5.17% |          18     31.03%     36.21% |           9     15.52%     51.72% |          14     24.14%     75.86% |          14     24.14%    100.00% |           0      0.00%    100.00% |           0      0.00%    100.00%
system.ruby.L1Cache_Controller.E.Fwd_GETS::total           58                      
system.ruby.L1Cache_Controller.M.Load    |     1103973     99.99%     99.99% |          14      0.00%    100.00% |          19      0.00%    100.00% |          15      0.00%    100.00% |          16      0.00%    100.00% |           0      0.00%    100.00% |           0      0.00%    100.00%
system.ruby.L1Cache_Controller.M.Load::total      1104037                      
system.ruby.L1Cache_Controller.M.Store   |      844403     99.91%     99.91% |         193      0.02%     99.93% |         194      0.02%     99.95% |         192      0.02%     99.98% |         193      0.02%    100.00% |           0      0.00%    100.00% |           0      0.00%    100.00%
system.ruby.L1Cache_Controller.M.Store::total       845175                      
system.ruby.L1Cache_Controller.M.L1_Replacement |         585     51.82%     51.82% |           0      0.00%     51.82% |           0      0.00%     51.82% |           0      0.00%     51.82% |           0      0.00%     51.82% |           0      0.00%     51.82% |         544     48.18%    100.00%
system.ruby.L1Cache_Controller.M.L1_Replacement::total         1129                      
system.ruby.L1Cache_Controller.M.Fwd_GETX |           8      3.94%      3.94% |          46     22.66%     26.60% |          50     24.63%     51.23% |          49     24.14%     75.37% |          50     24.63%    100.00% |           0      0.00%    100.00% |           0      0.00%    100.00%
system.ruby.L1Cache_Controller.M.Fwd_GETX::total          203                      
system.ruby.L1Cache_Controller.M.Fwd_GETS |         184     50.41%     50.41% |          38     10.41%     60.82% |          42     11.51%     72.33% |          35      9.59%     81.92% |          41     11.23%     93.15% |           0      0.00%     93.15% |          25      6.85%    100.00%
system.ruby.L1Cache_Controller.M.Fwd_GETS::total          365                      
system.ruby.L1Cache_Controller.IS.L1_Replacement |           0      0.00%      0.00% |           0      0.00%      0.00% |           0      0.00%      0.00% |           0      0.00%      0.00% |           0      0.00%      0.00% |           0      0.00%      0.00% |        6037    100.00%    100.00%
system.ruby.L1Cache_Controller.IS.L1_Replacement::total         6037                      
system.ruby.L1Cache_Controller.IS.Data_Exclusive |         633     53.92%     53.92% |          93      7.92%     61.84% |         108      9.20%     71.04% |          97      8.26%     79.30% |         107      9.11%     88.42% |           0      0.00%     88.42% |         136     11.58%    100.00%
system.ruby.L1Cache_Controller.IS.Data_Exclusive::total         1174                      
system.ruby.L1Cache_Controller.IS.DataS_fromL1 |          12      2.84%      2.84% |          21      4.96%      7.80% |          20      4.73%     12.53% |          19      4.49%     17.02% |          19      4.49%     21.51% |           0      0.00%     21.51% |         332     78.49%    100.00%
system.ruby.L1Cache_Controller.IS.DataS_fromL1::total          423                      
system.ruby.L1Cache_Controller.IS.Data_all_Acks |        5533     97.07%     97.07% |          16      0.28%     97.35% |          13      0.23%     97.58% |          15      0.26%     97.84% |          14      0.25%     98.09% |           0      0.00%     98.09% |         109      1.91%    100.00%
system.ruby.L1Cache_Controller.IS.Data_all_Acks::total         5700                      
system.ruby.L1Cache_Controller.IM.L1_Replacement |           0      0.00%      0.00% |           0      0.00%      0.00% |           0      0.00%      0.00% |           0      0.00%      0.00% |           0      0.00%      0.00% |           0      0.00%      0.00% |        5340    100.00%    100.00%
system.ruby.L1Cache_Controller.IM.L1_Replacement::total         5340                      
system.ruby.L1Cache_Controller.IM.Data   |           4      3.92%      3.92% |           0      0.00%      3.92% |           0      0.00%      3.92% |           0      0.00%      3.92% |           0      0.00%      3.92% |           0      0.00%      3.92% |          98     96.08%    100.00%
system.ruby.L1Cache_Controller.IM.Data::total          102                      
system.ruby.L1Cache_Controller.IM.Data_all_Acks |         824     60.23%     60.23% |          12      0.88%     61.11% |          20      1.46%     62.57% |          18      1.32%     63.89% |          16      1.17%     65.06% |           0      0.00%     65.06% |         478     34.94%    100.00%
system.ruby.L1Cache_Controller.IM.Data_all_Acks::total         1368                      
system.ruby.L1Cache_Controller.IM.Ack    |           0      0.00%      0.00% |           0      0.00%      0.00% |           0      0.00%      0.00% |           0      0.00%      0.00% |           0      0.00%      0.00% |           0      0.00%      0.00% |           4    100.00%    100.00%
system.ruby.L1Cache_Controller.IM.Ack::total            4                      
system.ruby.L1Cache_Controller.SM.L1_Replacement |           0      0.00%      0.00% |           0      0.00%      0.00% |           0      0.00%      0.00% |           0      0.00%      0.00% |           0      0.00%      0.00% |           0      0.00%      0.00% |         136    100.00%    100.00%
system.ruby.L1Cache_Controller.SM.L1_Replacement::total          136                      
system.ruby.L1Cache_Controller.SM.Ack    |          18     20.45%     20.45% |          28     31.82%     52.27% |           9     10.23%     62.50% |          15     17.05%     79.55% |          18     20.45%    100.00% |           0      0.00%    100.00% |           0      0.00%    100.00%
system.ruby.L1Cache_Controller.SM.Ack::total           88                      
system.ruby.L1Cache_Controller.SM.Ack_all |          13      7.18%      7.18% |          28     15.47%     22.65% |           9      4.97%     27.62% |          15      8.29%     35.91% |          18      9.94%     45.86% |           0      0.00%     45.86% |          98     54.14%    100.00%
system.ruby.L1Cache_Controller.SM.Ack_all::total          181                      
system.ruby.L1Cache_Controller.M_I.Ifetch |           2    100.00%    100.00% |           0      0.00%    100.00% |           0      0.00%    100.00% |           0      0.00%    100.00% |           0      0.00%    100.00% |           0      0.00%    100.00% |           0      0.00%    100.00%
system.ruby.L1Cache_Controller.M_I.Ifetch::total            2                      
system.ruby.L1Cache_Controller.M_I.WB_Ack |         822     54.73%     54.73% |           0      0.00%     54.73% |           0      0.00%     54.73% |           0      0.00%     54.73% |           0      0.00%     54.73% |           0      0.00%     54.73% |         680     45.27%    100.00%
system.ruby.L1Cache_Controller.M_I.WB_Ack::total         1502                      
system.ruby.L2Cache_Controller.L1_GET_INSTR         5579      0.00%      0.00%
system.ruby.L2Cache_Controller.L1_GETS           1767      0.00%      0.00%
system.ruby.L2Cache_Controller.L1_GETX           1479      0.00%      0.00%
system.ruby.L2Cache_Controller.L1_UPGRADE           79      0.00%      0.00%
system.ruby.L2Cache_Controller.L1_PUTX           1502      0.00%      0.00%
system.ruby.L2Cache_Controller.Mem_Data          1676      0.00%      0.00%
system.ruby.L2Cache_Controller.WB_Data            365      0.00%      0.00%
system.ruby.L2Cache_Controller.WB_Data_clean           58      0.00%      0.00%
system.ruby.L2Cache_Controller.Unblock            423      0.00%      0.00%
system.ruby.L2Cache_Controller.Exclusive_Unblock         2723      0.00%      0.00%
system.ruby.L2Cache_Controller.NP.L1_GET_INSTR          472      0.00%      0.00%
system.ruby.L2Cache_Controller.NP.L1_GETS          121      0.00%      0.00%
system.ruby.L2Cache_Controller.NP.L1_GETX         1083      0.00%      0.00%
system.ruby.L2Cache_Controller.SS.L1_GET_INSTR         5080      0.00%      0.00%
system.ruby.L2Cache_Controller.SS.L1_GETS          121      0.00%      0.00%
system.ruby.L2Cache_Controller.SS.L1_GETX          106      0.00%      0.00%
system.ruby.L2Cache_Controller.SS.L1_UPGRADE           79      0.00%      0.00%
system.ruby.L2Cache_Controller.M.L1_GET_INSTR            3      0.00%      0.00%
system.ruby.L2Cache_Controller.M.L1_GETS         1053      0.00%      0.00%
system.ruby.L2Cache_Controller.M.L1_GETX           66      0.00%      0.00%
system.ruby.L2Cache_Controller.MT.L1_GETS          423      0.00%      0.00%
system.ruby.L2Cache_Controller.MT.L1_GETX          215      0.00%      0.00%
system.ruby.L2Cache_Controller.MT.L1_PUTX         1502      0.00%      0.00%
system.ruby.L2Cache_Controller.ISS.Mem_Data          121      0.00%      0.00%
system.ruby.L2Cache_Controller.IS.L1_GET_INSTR           24      0.00%      0.00%
system.ruby.L2Cache_Controller.IS.Mem_Data          472      0.00%      0.00%
system.ruby.L2Cache_Controller.IM.L1_GETX            6      0.00%      0.00%
system.ruby.L2Cache_Controller.IM.Mem_Data         1083      0.00%      0.00%
system.ruby.L2Cache_Controller.SS_MB.L1_GETX            2      0.00%      0.00%
system.ruby.L2Cache_Controller.SS_MB.Exclusive_Unblock          185      0.00%      0.00%
system.ruby.L2Cache_Controller.MT_MB.L1_GETS           46      0.00%      0.00%
system.ruby.L2Cache_Controller.MT_MB.L1_GETX            1      0.00%      0.00%
system.ruby.L2Cache_Controller.MT_MB.Exclusive_Unblock         2538      0.00%      0.00%
system.ruby.L2Cache_Controller.MT_IIB.L1_GETS            3      0.00%      0.00%
system.ruby.L2Cache_Controller.MT_IIB.WB_Data          115      0.00%      0.00%
system.ruby.L2Cache_Controller.MT_IIB.WB_Data_clean            6      0.00%      0.00%
system.ruby.L2Cache_Controller.MT_IIB.Unblock          302      0.00%      0.00%
system.ruby.L2Cache_Controller.MT_IB.WB_Data          250      0.00%      0.00%
system.ruby.L2Cache_Controller.MT_IB.WB_Data_clean           52      0.00%      0.00%
system.ruby.L2Cache_Controller.MT_SB.Unblock          121      0.00%      0.00%
system.ruby.Directory_Controller.Fetch           1676      0.00%      0.00%
system.ruby.Directory_Controller.Memory_Data         1676      0.00%      0.00%
system.ruby.Directory_Controller.I.Fetch         1676      0.00%      0.00%
system.ruby.Directory_Controller.IM.Memory_Data         1676      0.00%      0.00%

---------- End Simulation Statistics   ----------
