
---------- Begin Simulation Statistics ----------
sim_seconds                                  0.008951                       # Number of seconds simulated
sim_ticks                                  8950621000                       # Number of ticks simulated
final_tick                                 8950621000                       # Number of ticks from beginning of simulation (restored from checkpoints and never reset)
sim_freq                                 1000000000000                       # Frequency of simulated ticks
host_inst_rate                                 221352                       # Simulator instruction rate (inst/s)
host_op_rate                                   422886                       # Simulator op (including micro ops) rate (op/s)
host_tick_rate                              399405734                       # Simulator tick rate (ticks/s)
host_mem_usage                                4507296                       # Number of bytes of host memory used
host_seconds                                    22.41                       # Real time elapsed on the host
sim_insts                                     4960458                       # Number of instructions simulated
sim_ops                                       9476800                       # Number of ops (including micro ops) simulated
system.voltage_domain.voltage                       1                       # Voltage in Volts
system.clk_domain.clock                          1000                       # Clock period in ticks
system.mem_ctrls.clk_domain.clock                2500                       # Clock period in ticks
system.mem_ctrls.bytes_read::ruby.dir_cntrl0       214784                       # Number of bytes read from this memory
system.mem_ctrls.bytes_read::total             214784                       # Number of bytes read from this memory
system.mem_ctrls.num_reads::ruby.dir_cntrl0         1678                       # Number of read requests responded to by this memory
system.mem_ctrls.num_reads::total                1678                       # Number of read requests responded to by this memory
system.mem_ctrls.bw_read::ruby.dir_cntrl0     23996547                       # Total read bandwidth from this memory (bytes/s)
system.mem_ctrls.bw_read::total              23996547                       # Total read bandwidth from this memory (bytes/s)
system.mem_ctrls.bw_total::ruby.dir_cntrl0     23996547                       # Total bandwidth to/from this memory (bytes/s)
system.mem_ctrls.bw_total::total             23996547                       # Total bandwidth to/from this memory (bytes/s)
system.mem_ctrls.memReq                          1678                       # Total number of memory requests
system.mem_ctrls.memRead                         1678                       # Number of memory reads
system.mem_ctrls.memRefresh                      8452                       # Number of memory refreshes
system.mem_ctrls.memWaitCycles                    338                       # Delay stalled at the head of the bank queue
system.mem_ctrls.memInputQ                          8                       # Delay in the input queue
system.mem_ctrls.memBankQ                           1                       # Delay behind the head of the bank queue
system.mem_ctrls.totalStalls                      347                       # Total number of stall cycles
system.mem_ctrls.stallsPerReq                0.206794                       # Expected number of stall cycles per request
system.mem_ctrls.memBankBusy                      168                       # memory stalls due to busy bank
system.mem_ctrls.memBusBusy                       115                       # memory stalls due to busy bus
system.mem_ctrls.memDataBusBusy                    22                       # memory stalls due to read read turnaround
system.mem_ctrls.memArbWait                        33                       # memory stalls due to arbitration
system.mem_ctrls.memBankCount            |          49      2.92%      2.92% |          54      3.22%      6.14% |          54      3.22%      9.36% |          56      3.34%     12.69% |          51      3.04%     15.73% |          50      2.98%     18.71% |          47      2.80%     21.51% |          50      2.98%     24.49% |          50      2.98%     27.47% |          49      2.92%     30.39% |          57      3.40%     33.79% |          50      2.98%     36.77% |          47      2.80%     39.57% |          50      2.98%     42.55% |          55      3.28%     45.83% |          54      3.22%     49.05% |          62      3.69%     52.74% |          62      3.69%     56.44% |          50      2.98%     59.42% |          54      3.22%     62.63% |          42      2.50%     65.14% |          44      2.62%     67.76% |          51      3.04%     70.80% |          59      3.52%     74.31% |          62      3.69%     78.01% |          56      3.34%     81.35% |          54      3.22%     84.56% |          50      2.98%     87.54% |          48      2.86%     90.41% |          52      3.10%     93.50% |          56      3.34%     96.84% |          53      3.16%    100.00% # Number of accesses per bank
system.mem_ctrls.memBankCount::total             1678                       # Number of accesses per bank
system.ruby_clk_domain.clock                      500                       # Clock period in ticks
system.ruby.phys_mem.bytes_read::cpu.inst     53321984                       # Number of bytes read from this memory
system.ruby.phys_mem.bytes_read::cpu.data      7972207                       # Number of bytes read from this memory
system.ruby.phys_mem.bytes_read::gpu.ce         73052                       # Number of bytes read from this memory
system.ruby.phys_mem.bytes_read::gpu.shader_cores0.data        35072                       # Number of bytes read from this memory
system.ruby.phys_mem.bytes_read::gpu.shader_cores0.inst          192                       # Number of bytes read from this memory
system.ruby.phys_mem.bytes_read::gpu.shader_cores1.data        35456                       # Number of bytes read from this memory
system.ruby.phys_mem.bytes_read::gpu.shader_cores1.inst          208                       # Number of bytes read from this memory
system.ruby.phys_mem.bytes_read::gpu.shader_cores2.data        35072                       # Number of bytes read from this memory
system.ruby.phys_mem.bytes_read::gpu.shader_cores2.inst          192                       # Number of bytes read from this memory
system.ruby.phys_mem.bytes_read::gpu.shader_cores3.data        34816                       # Number of bytes read from this memory
system.ruby.phys_mem.bytes_read::gpu.shader_cores3.inst          192                       # Number of bytes read from this memory
system.ruby.phys_mem.bytes_read::total       61508443                       # Number of bytes read from this memory
system.ruby.phys_mem.bytes_inst_read::cpu.inst     53321984                       # Number of instructions bytes read from this memory
system.ruby.phys_mem.bytes_inst_read::gpu.shader_cores0.inst          192                       # Number of instructions bytes read from this memory
system.ruby.phys_mem.bytes_inst_read::gpu.shader_cores1.inst          208                       # Number of instructions bytes read from this memory
system.ruby.phys_mem.bytes_inst_read::gpu.shader_cores2.inst          192                       # Number of instructions bytes read from this memory
system.ruby.phys_mem.bytes_inst_read::gpu.shader_cores3.inst          192                       # Number of instructions bytes read from this memory
system.ruby.phys_mem.bytes_inst_read::total     53322768                       # Number of instructions bytes read from this memory
system.ruby.phys_mem.bytes_written::cpu.data      4969927                       # Number of bytes written to this memory
system.ruby.phys_mem.bytes_written::gpu.ce        73052                       # Number of bytes written to this memory
system.ruby.phys_mem.bytes_written::gpu.shader_cores0.data        12544                       # Number of bytes written to this memory
system.ruby.phys_mem.bytes_written::gpu.shader_cores1.data        12672                       # Number of bytes written to this memory
system.ruby.phys_mem.bytes_written::gpu.shader_cores2.data        12544                       # Number of bytes written to this memory
system.ruby.phys_mem.bytes_written::gpu.shader_cores3.data        12544                       # Number of bytes written to this memory
system.ruby.phys_mem.bytes_written::total      5093283                       # Number of bytes written to this memory
system.ruby.phys_mem.num_reads::cpu.inst      6665248                       # Number of read requests responded to by this memory
system.ruby.phys_mem.num_reads::cpu.data      1297872                       # Number of read requests responded to by this memory
system.ruby.phys_mem.num_reads::gpu.ce            577                       # Number of read requests responded to by this memory
system.ruby.phys_mem.num_reads::gpu.shader_cores0.data          428                       # Number of read requests responded to by this memory
system.ruby.phys_mem.num_reads::gpu.shader_cores0.inst           12                       # Number of read requests responded to by this memory
system.ruby.phys_mem.num_reads::gpu.shader_cores1.data          421                       # Number of read requests responded to by this memory
system.ruby.phys_mem.num_reads::gpu.shader_cores1.inst           13                       # Number of read requests responded to by this memory
system.ruby.phys_mem.num_reads::gpu.shader_cores2.data          428                       # Number of read requests responded to by this memory
system.ruby.phys_mem.num_reads::gpu.shader_cores2.inst           12                       # Number of read requests responded to by this memory
system.ruby.phys_mem.num_reads::gpu.shader_cores3.data          416                       # Number of read requests responded to by this memory
system.ruby.phys_mem.num_reads::gpu.shader_cores3.inst           12                       # Number of read requests responded to by this memory
system.ruby.phys_mem.num_reads::total         7965439                       # Number of read requests responded to by this memory
system.ruby.phys_mem.num_writes::cpu.data       788149                       # Number of write requests responded to by this memory
system.ruby.phys_mem.num_writes::gpu.ce           576                       # Number of write requests responded to by this memory
system.ruby.phys_mem.num_writes::gpu.shader_cores0.data          308                       # Number of write requests responded to by this memory
system.ruby.phys_mem.num_writes::gpu.shader_cores1.data          322                       # Number of write requests responded to by this memory
system.ruby.phys_mem.num_writes::gpu.shader_cores2.data          308                       # Number of write requests responded to by this memory
system.ruby.phys_mem.num_writes::gpu.shader_cores3.data          320                       # Number of write requests responded to by this memory
system.ruby.phys_mem.num_writes::total         789983                       # Number of write requests responded to by this memory
system.ruby.phys_mem.bw_read::cpu.inst     5957350222                       # Total read bandwidth from this memory (bytes/s)
system.ruby.phys_mem.bw_read::cpu.data      890687585                       # Total read bandwidth from this memory (bytes/s)
system.ruby.phys_mem.bw_read::gpu.ce          8161668                       # Total read bandwidth from this memory (bytes/s)
system.ruby.phys_mem.bw_read::gpu.shader_cores0.data      3918387                       # Total read bandwidth from this memory (bytes/s)
system.ruby.phys_mem.bw_read::gpu.shader_cores0.inst        21451                       # Total read bandwidth from this memory (bytes/s)
system.ruby.phys_mem.bw_read::gpu.shader_cores1.data      3961289                       # Total read bandwidth from this memory (bytes/s)
system.ruby.phys_mem.bw_read::gpu.shader_cores1.inst        23239                       # Total read bandwidth from this memory (bytes/s)
system.ruby.phys_mem.bw_read::gpu.shader_cores2.data      3918387                       # Total read bandwidth from this memory (bytes/s)
system.ruby.phys_mem.bw_read::gpu.shader_cores2.inst        21451                       # Total read bandwidth from this memory (bytes/s)
system.ruby.phys_mem.bw_read::gpu.shader_cores3.data      3889786                       # Total read bandwidth from this memory (bytes/s)
system.ruby.phys_mem.bw_read::gpu.shader_cores3.inst        21451                       # Total read bandwidth from this memory (bytes/s)
system.ruby.phys_mem.bw_read::total        6871974917                       # Total read bandwidth from this memory (bytes/s)
system.ruby.phys_mem.bw_inst_read::cpu.inst   5957350222                       # Instruction read bandwidth from this memory (bytes/s)
system.ruby.phys_mem.bw_inst_read::gpu.shader_cores0.inst        21451                       # Instruction read bandwidth from this memory (bytes/s)
system.ruby.phys_mem.bw_inst_read::gpu.shader_cores1.inst        23239                       # Instruction read bandwidth from this memory (bytes/s)
system.ruby.phys_mem.bw_inst_read::gpu.shader_cores2.inst        21451                       # Instruction read bandwidth from this memory (bytes/s)
system.ruby.phys_mem.bw_inst_read::gpu.shader_cores3.inst        21451                       # Instruction read bandwidth from this memory (bytes/s)
system.ruby.phys_mem.bw_inst_read::total   5957437814                       # Instruction read bandwidth from this memory (bytes/s)
system.ruby.phys_mem.bw_write::cpu.data     555260579                       # Write bandwidth from this memory (bytes/s)
system.ruby.phys_mem.bw_write::gpu.ce         8161668                       # Write bandwidth from this memory (bytes/s)
system.ruby.phys_mem.bw_write::gpu.shader_cores0.data      1401467                       # Write bandwidth from this memory (bytes/s)
system.ruby.phys_mem.bw_write::gpu.shader_cores1.data      1415768                       # Write bandwidth from this memory (bytes/s)
system.ruby.phys_mem.bw_write::gpu.shader_cores2.data      1401467                       # Write bandwidth from this memory (bytes/s)
system.ruby.phys_mem.bw_write::gpu.shader_cores3.data      1401467                       # Write bandwidth from this memory (bytes/s)
system.ruby.phys_mem.bw_write::total        569042416                       # Write bandwidth from this memory (bytes/s)
system.ruby.phys_mem.bw_total::cpu.inst    5957350222                       # Total bandwidth to/from this memory (bytes/s)
system.ruby.phys_mem.bw_total::cpu.data    1445948164                       # Total bandwidth to/from this memory (bytes/s)
system.ruby.phys_mem.bw_total::gpu.ce        16323337                       # Total bandwidth to/from this memory (bytes/s)
system.ruby.phys_mem.bw_total::gpu.shader_cores0.data      5319854                       # Total bandwidth to/from this memory (bytes/s)
system.ruby.phys_mem.bw_total::gpu.shader_cores0.inst        21451                       # Total bandwidth to/from this memory (bytes/s)
system.ruby.phys_mem.bw_total::gpu.shader_cores1.data      5377057                       # Total bandwidth to/from this memory (bytes/s)
system.ruby.phys_mem.bw_total::gpu.shader_cores1.inst        23239                       # Total bandwidth to/from this memory (bytes/s)
system.ruby.phys_mem.bw_total::gpu.shader_cores2.data      5319854                       # Total bandwidth to/from this memory (bytes/s)
system.ruby.phys_mem.bw_total::gpu.shader_cores2.inst        21451                       # Total bandwidth to/from this memory (bytes/s)
system.ruby.phys_mem.bw_total::gpu.shader_cores3.data      5291253                       # Total bandwidth to/from this memory (bytes/s)
system.ruby.phys_mem.bw_total::gpu.shader_cores3.inst        21451                       # Total bandwidth to/from this memory (bytes/s)
system.ruby.phys_mem.bw_total::total       7441017333                       # Total bandwidth to/from this memory (bytes/s)
system.cpu_voltage_domain.voltage                   1                       # Voltage in Volts
system.cpu_clk_domain.clock                       500                       # Clock period in ticks
system.cpu.apic_clk_domain.clock                 8000                       # Clock period in ticks
system.cpu.workload.num_syscalls                   44                       # Number of system calls
system.cpu.numCycles                         17901242                       # number of cpu cycles simulated
system.cpu.numWorkItemsStarted                      1                       # number of work items this cpu started
system.cpu.numWorkItemsCompleted                    1                       # number of work items this cpu completed
system.cpu.committedInsts                     4960458                       # Number of instructions committed
system.cpu.committedOps                       9476800                       # Number of ops (including micro ops) committed
system.cpu.num_int_alu_accesses               9329263                       # Number of integer alu accesses
system.cpu.num_fp_alu_accesses                 212669                       # Number of float alu accesses
system.cpu.num_func_calls                      196548                       # number of times a function call or return occured
system.cpu.num_conditional_control_insts       812678                       # number of instructions that are conditional controls
system.cpu.num_int_insts                      9329263                       # number of integer instructions
system.cpu.num_fp_insts                        212669                       # number of float instructions
system.cpu.num_int_register_reads            17876845                       # number of times the integer registers were read
system.cpu.num_int_register_writes            7459359                       # number of times the integer registers were written
system.cpu.num_fp_register_reads               283204                       # number of times the floating registers were read
system.cpu.num_fp_register_writes              145430                       # number of times the floating registers were written
system.cpu.num_cc_register_reads              5507465                       # number of times the CC registers were read
system.cpu.num_cc_register_writes             3245245                       # number of times the CC registers were written
system.cpu.num_mem_refs                       2086021                       # number of memory refs
system.cpu.num_load_insts                     1297872                       # Number of load instructions
system.cpu.num_store_insts                     788149                       # Number of store instructions
system.cpu.num_idle_cycles               75865.215992                       # Number of idle cycles
system.cpu.num_busy_cycles               17825376.784008                       # Number of busy cycles
system.cpu.not_idle_fraction                 0.995762                       # Percentage of non-idle cycles
system.cpu.idle_fraction                     0.004238                       # Percentage of idle cycles
system.cpu.Branches                           1088962                       # Number of branches fetched
system.cpu.op_class::No_OpClass                 35031      0.37%      0.37% # Class of executed instruction
system.cpu.op_class::IntAlu                   7203204     76.01%     76.38% # Class of executed instruction
system.cpu.op_class::IntMult                    20875      0.22%     76.60% # Class of executed instruction
system.cpu.op_class::IntDiv                       571      0.01%     76.60% # Class of executed instruction
system.cpu.op_class::FloatAdd                  131098      1.38%     77.99% # Class of executed instruction
system.cpu.op_class::FloatCmp                       0      0.00%     77.99% # Class of executed instruction
system.cpu.op_class::FloatCvt                       0      0.00%     77.99% # Class of executed instruction
system.cpu.op_class::FloatMult                      0      0.00%     77.99% # Class of executed instruction
system.cpu.op_class::FloatDiv                       0      0.00%     77.99% # Class of executed instruction
system.cpu.op_class::FloatSqrt                      0      0.00%     77.99% # Class of executed instruction
system.cpu.op_class::SimdAdd                        0      0.00%     77.99% # Class of executed instruction
system.cpu.op_class::SimdAddAcc                     0      0.00%     77.99% # Class of executed instruction
system.cpu.op_class::SimdAlu                        0      0.00%     77.99% # Class of executed instruction
system.cpu.op_class::SimdCmp                        0      0.00%     77.99% # Class of executed instruction
system.cpu.op_class::SimdCvt                        0      0.00%     77.99% # Class of executed instruction
system.cpu.op_class::SimdMisc                       0      0.00%     77.99% # Class of executed instruction
system.cpu.op_class::SimdMult                       0      0.00%     77.99% # Class of executed instruction
system.cpu.op_class::SimdMultAcc                    0      0.00%     77.99% # Class of executed instruction
system.cpu.op_class::SimdShift                      0      0.00%     77.99% # Class of executed instruction
system.cpu.op_class::SimdShiftAcc                   0      0.00%     77.99% # Class of executed instruction
system.cpu.op_class::SimdSqrt                       0      0.00%     77.99% # Class of executed instruction
system.cpu.op_class::SimdFloatAdd                   0      0.00%     77.99% # Class of executed instruction
system.cpu.op_class::SimdFloatAlu                   0      0.00%     77.99% # Class of executed instruction
system.cpu.op_class::SimdFloatCmp                   0      0.00%     77.99% # Class of executed instruction
system.cpu.op_class::SimdFloatCvt                   0      0.00%     77.99% # Class of executed instruction
system.cpu.op_class::SimdFloatDiv                   0      0.00%     77.99% # Class of executed instruction
system.cpu.op_class::SimdFloatMisc                  0      0.00%     77.99% # Class of executed instruction
system.cpu.op_class::SimdFloatMult                  0      0.00%     77.99% # Class of executed instruction
system.cpu.op_class::SimdFloatMultAcc               0      0.00%     77.99% # Class of executed instruction
system.cpu.op_class::SimdFloatSqrt                  0      0.00%     77.99% # Class of executed instruction
system.cpu.op_class::MemRead                  1297872     13.70%     91.68% # Class of executed instruction
system.cpu.op_class::MemWrite                  788149      8.32%    100.00% # Class of executed instruction
system.cpu.op_class::IprAccess                      0      0.00%    100.00% # Class of executed instruction
system.cpu.op_class::InstPrefetch                   0      0.00%    100.00% # Class of executed instruction
system.cpu.op_class::total                    9476800                       # Class of executed instruction
system.gpu.clk_domain.voltage_domain.voltage            1                       # Voltage in Volts
system.gpu.clk_domain.clock                      1429                       # Clock period in ticks
system.gpu.dram_wrapper.clk_domain.clock          541                       # Clock period in ticks
system.gpu.icnt_wrapper.clk_domain.clock         2858                       # Clock period in ticks
system.ruby.delayHist::bucket_size                256                       # delay histogram for all message
system.ruby.delayHist::max_bucket                2559                       # delay histogram for all message
system.ruby.delayHist::samples                  26961                       # delay histogram for all message
system.ruby.delayHist::mean                 22.229739                       # delay histogram for all message
system.ruby.delayHist::stdev               154.469060                       # delay histogram for all message
system.ruby.delayHist                    |       26593     98.64%     98.64% |          39      0.14%     98.78% |         101      0.37%     99.15% |          33      0.12%     99.28% |          20      0.07%     99.35% |          49      0.18%     99.53% |          47      0.17%     99.71% |          43      0.16%     99.87% |          36      0.13%    100.00% |           0      0.00%    100.00% # delay histogram for all message
system.ruby.delayHist::total                    26961                       # delay histogram for all message
system.ruby.outstanding_req_hist::bucket_size            8                      
system.ruby.outstanding_req_hist::max_bucket           79                      
system.ruby.outstanding_req_hist::samples      8755422                      
system.ruby.outstanding_req_hist::mean       1.008606                      
system.ruby.outstanding_req_hist::gmean      1.000842                      
system.ruby.outstanding_req_hist::stdev      0.655453                      
system.ruby.outstanding_req_hist         |     8753523     99.98%     99.98% |         350      0.00%     99.98% |         241      0.00%     99.99% |         226      0.00%     99.99% |         211      0.00%     99.99% |          57      0.00%     99.99% |          45      0.00%     99.99% |          56      0.00%     99.99% |         713      0.01%    100.00% |           0      0.00%    100.00%
system.ruby.outstanding_req_hist::total       8755422                      
system.ruby.latency_hist::bucket_size             256                      
system.ruby.latency_hist::max_bucket             2559                      
system.ruby.latency_hist::samples             8755422                      
system.ruby.latency_hist::mean               1.158631                      
system.ruby.latency_hist::gmean              1.003879                      
system.ruby.latency_hist::stdev             10.884114                      
system.ruby.latency_hist                 |     8754087     99.98%     99.98% |         331      0.00%     99.99% |         491      0.01%     99.99% |         203      0.00%    100.00% |         132      0.00%    100.00% |          87      0.00%    100.00% |          74      0.00%    100.00% |          17      0.00%    100.00% |           0      0.00%    100.00% |           0      0.00%    100.00%
system.ruby.latency_hist::total               8755422                      
system.ruby.hit_latency_hist::bucket_size            1                      
system.ruby.hit_latency_hist::max_bucket            9                      
system.ruby.hit_latency_hist::samples         8746577                      
system.ruby.hit_latency_hist::mean                  1                      
system.ruby.hit_latency_hist::gmean                 1                      
system.ruby.hit_latency_hist             |           0      0.00%      0.00% |     8746577    100.00%    100.00% |           0      0.00%    100.00% |           0      0.00%    100.00% |           0      0.00%    100.00% |           0      0.00%    100.00% |           0      0.00%    100.00% |           0      0.00%    100.00% |           0      0.00%    100.00% |           0      0.00%    100.00%
system.ruby.hit_latency_hist::total           8746577                      
system.ruby.miss_latency_hist::bucket_size          256                      
system.ruby.miss_latency_hist::max_bucket         2559                      
system.ruby.miss_latency_hist::samples           8845                      
system.ruby.miss_latency_hist::mean        158.023968                      
system.ruby.miss_latency_hist::gmean        46.173708                      
system.ruby.miss_latency_hist::stdev       304.373175                      
system.ruby.miss_latency_hist            |        7510     84.91%     84.91% |         331      3.74%     88.65% |         491      5.55%     94.20% |         203      2.30%     96.50% |         132      1.49%     97.99% |          87      0.98%     98.97% |          74      0.84%     99.81% |          17      0.19%    100.00% |           0      0.00%    100.00% |           0      0.00%    100.00%
system.ruby.miss_latency_hist::total             8845                      
system.gpu.shader_mmu.numPagefaults                 0                       # Number of Pagefaults
system.gpu.shader_mmu.numPagewalks                176                       # Number of Pagewalks
system.gpu.shader_mmu.totalRequests               176                       # Total number of requests
system.gpu.shader_mmu.l2hits                        0                       # Hits in the shared L2
system.gpu.shader_mmu.prefetchHits                  0                       # Number of prefetch hits
system.gpu.shader_mmu.numPrefetches                 0                       # Number of prefetchs
system.gpu.shader_mmu.prefetchFaults                0                       # Number of faults caused by prefetches
system.gpu.shader_mmu.pagefaultLatency::samples            0                       # Latency to complete the pagefault
system.gpu.shader_mmu.pagefaultLatency::mean          nan                       # Latency to complete the pagefault
system.gpu.shader_mmu.pagefaultLatency::gmean          nan                       # Latency to complete the pagefault
system.gpu.shader_mmu.pagefaultLatency::stdev          nan                       # Latency to complete the pagefault
system.gpu.shader_mmu.pagefaultLatency::0            0                       # Latency to complete the pagefault
system.gpu.shader_mmu.pagefaultLatency::1            0                       # Latency to complete the pagefault
system.gpu.shader_mmu.pagefaultLatency::2            0                       # Latency to complete the pagefault
system.gpu.shader_mmu.pagefaultLatency::3            0                       # Latency to complete the pagefault
system.gpu.shader_mmu.pagefaultLatency::4            0                       # Latency to complete the pagefault
system.gpu.shader_mmu.pagefaultLatency::5            0                       # Latency to complete the pagefault
system.gpu.shader_mmu.pagefaultLatency::6            0                       # Latency to complete the pagefault
system.gpu.shader_mmu.pagefaultLatency::7            0                       # Latency to complete the pagefault
system.gpu.shader_mmu.pagefaultLatency::8            0                       # Latency to complete the pagefault
system.gpu.shader_mmu.pagefaultLatency::9            0                       # Latency to complete the pagefault
system.gpu.shader_mmu.pagefaultLatency::10            0                       # Latency to complete the pagefault
system.gpu.shader_mmu.pagefaultLatency::11            0                       # Latency to complete the pagefault
system.gpu.shader_mmu.pagefaultLatency::12            0                       # Latency to complete the pagefault
system.gpu.shader_mmu.pagefaultLatency::13            0                       # Latency to complete the pagefault
system.gpu.shader_mmu.pagefaultLatency::14            0                       # Latency to complete the pagefault
system.gpu.shader_mmu.pagefaultLatency::15            0                       # Latency to complete the pagefault
system.gpu.shader_mmu.pagefaultLatency::16            0                       # Latency to complete the pagefault
system.gpu.shader_mmu.pagefaultLatency::17            0                       # Latency to complete the pagefault
system.gpu.shader_mmu.pagefaultLatency::18            0                       # Latency to complete the pagefault
system.gpu.shader_mmu.pagefaultLatency::19            0                       # Latency to complete the pagefault
system.gpu.shader_mmu.pagefaultLatency::20            0                       # Latency to complete the pagefault
system.gpu.shader_mmu.pagefaultLatency::21            0                       # Latency to complete the pagefault
system.gpu.shader_mmu.pagefaultLatency::22            0                       # Latency to complete the pagefault
system.gpu.shader_mmu.pagefaultLatency::23            0                       # Latency to complete the pagefault
system.gpu.shader_mmu.pagefaultLatency::24            0                       # Latency to complete the pagefault
system.gpu.shader_mmu.pagefaultLatency::25            0                       # Latency to complete the pagefault
system.gpu.shader_mmu.pagefaultLatency::26            0                       # Latency to complete the pagefault
system.gpu.shader_mmu.pagefaultLatency::27            0                       # Latency to complete the pagefault
system.gpu.shader_mmu.pagefaultLatency::28            0                       # Latency to complete the pagefault
system.gpu.shader_mmu.pagefaultLatency::29            0                       # Latency to complete the pagefault
system.gpu.shader_mmu.pagefaultLatency::30            0                       # Latency to complete the pagefault
system.gpu.shader_mmu.pagefaultLatency::31            0                       # Latency to complete the pagefault
system.gpu.shader_mmu.pagefaultLatency::total            0                       # Latency to complete the pagefault
system.gpu.shader_mmu.concurrentWalks::samples          176                       # Number of outstanding walks
system.gpu.shader_mmu.concurrentWalks::mean            0                       # Number of outstanding walks
system.gpu.shader_mmu.concurrentWalks::gmean            0                       # Number of outstanding walks
system.gpu.shader_mmu.concurrentWalks::stdev            0                       # Number of outstanding walks
system.gpu.shader_mmu.concurrentWalks::0          176    100.00%    100.00% # Number of outstanding walks
system.gpu.shader_mmu.concurrentWalks::1            0      0.00%    100.00% # Number of outstanding walks
system.gpu.shader_mmu.concurrentWalks::2            0      0.00%    100.00% # Number of outstanding walks
system.gpu.shader_mmu.concurrentWalks::3            0      0.00%    100.00% # Number of outstanding walks
system.gpu.shader_mmu.concurrentWalks::4            0      0.00%    100.00% # Number of outstanding walks
system.gpu.shader_mmu.concurrentWalks::5            0      0.00%    100.00% # Number of outstanding walks
system.gpu.shader_mmu.concurrentWalks::6            0      0.00%    100.00% # Number of outstanding walks
system.gpu.shader_mmu.concurrentWalks::7            0      0.00%    100.00% # Number of outstanding walks
system.gpu.shader_mmu.concurrentWalks::8            0      0.00%    100.00% # Number of outstanding walks
system.gpu.shader_mmu.concurrentWalks::9            0      0.00%    100.00% # Number of outstanding walks
system.gpu.shader_mmu.concurrentWalks::10            0      0.00%    100.00% # Number of outstanding walks
system.gpu.shader_mmu.concurrentWalks::11            0      0.00%    100.00% # Number of outstanding walks
system.gpu.shader_mmu.concurrentWalks::12            0      0.00%    100.00% # Number of outstanding walks
system.gpu.shader_mmu.concurrentWalks::13            0      0.00%    100.00% # Number of outstanding walks
system.gpu.shader_mmu.concurrentWalks::14            0      0.00%    100.00% # Number of outstanding walks
system.gpu.shader_mmu.concurrentWalks::15            0      0.00%    100.00% # Number of outstanding walks
system.gpu.shader_mmu.concurrentWalks::total          176                       # Number of outstanding walks
system.gpu.shader_mmu.pagewalkLatency::samples          176                       # Latency to complete the pagewalk
system.gpu.shader_mmu.pagewalkLatency::mean            0                       # Latency to complete the pagewalk
system.gpu.shader_mmu.pagewalkLatency::gmean            0                       # Latency to complete the pagewalk
system.gpu.shader_mmu.pagewalkLatency::stdev            0                       # Latency to complete the pagewalk
system.gpu.shader_mmu.pagewalkLatency::0          176    100.00%    100.00% # Latency to complete the pagewalk
system.gpu.shader_mmu.pagewalkLatency::1            0      0.00%    100.00% # Latency to complete the pagewalk
system.gpu.shader_mmu.pagewalkLatency::2            0      0.00%    100.00% # Latency to complete the pagewalk
system.gpu.shader_mmu.pagewalkLatency::3            0      0.00%    100.00% # Latency to complete the pagewalk
system.gpu.shader_mmu.pagewalkLatency::4            0      0.00%    100.00% # Latency to complete the pagewalk
system.gpu.shader_mmu.pagewalkLatency::5            0      0.00%    100.00% # Latency to complete the pagewalk
system.gpu.shader_mmu.pagewalkLatency::6            0      0.00%    100.00% # Latency to complete the pagewalk
system.gpu.shader_mmu.pagewalkLatency::7            0      0.00%    100.00% # Latency to complete the pagewalk
system.gpu.shader_mmu.pagewalkLatency::8            0      0.00%    100.00% # Latency to complete the pagewalk
system.gpu.shader_mmu.pagewalkLatency::9            0      0.00%    100.00% # Latency to complete the pagewalk
system.gpu.shader_mmu.pagewalkLatency::10            0      0.00%    100.00% # Latency to complete the pagewalk
system.gpu.shader_mmu.pagewalkLatency::11            0      0.00%    100.00% # Latency to complete the pagewalk
system.gpu.shader_mmu.pagewalkLatency::12            0      0.00%    100.00% # Latency to complete the pagewalk
system.gpu.shader_mmu.pagewalkLatency::13            0      0.00%    100.00% # Latency to complete the pagewalk
system.gpu.shader_mmu.pagewalkLatency::14            0      0.00%    100.00% # Latency to complete the pagewalk
system.gpu.shader_mmu.pagewalkLatency::15            0      0.00%    100.00% # Latency to complete the pagewalk
system.gpu.shader_mmu.pagewalkLatency::16            0      0.00%    100.00% # Latency to complete the pagewalk
system.gpu.shader_mmu.pagewalkLatency::17            0      0.00%    100.00% # Latency to complete the pagewalk
system.gpu.shader_mmu.pagewalkLatency::18            0      0.00%    100.00% # Latency to complete the pagewalk
system.gpu.shader_mmu.pagewalkLatency::19            0      0.00%    100.00% # Latency to complete the pagewalk
system.gpu.shader_mmu.pagewalkLatency::20            0      0.00%    100.00% # Latency to complete the pagewalk
system.gpu.shader_mmu.pagewalkLatency::21            0      0.00%    100.00% # Latency to complete the pagewalk
system.gpu.shader_mmu.pagewalkLatency::22            0      0.00%    100.00% # Latency to complete the pagewalk
system.gpu.shader_mmu.pagewalkLatency::23            0      0.00%    100.00% # Latency to complete the pagewalk
system.gpu.shader_mmu.pagewalkLatency::24            0      0.00%    100.00% # Latency to complete the pagewalk
system.gpu.shader_mmu.pagewalkLatency::25            0      0.00%    100.00% # Latency to complete the pagewalk
system.gpu.shader_mmu.pagewalkLatency::26            0      0.00%    100.00% # Latency to complete the pagewalk
system.gpu.shader_mmu.pagewalkLatency::27            0      0.00%    100.00% # Latency to complete the pagewalk
system.gpu.shader_mmu.pagewalkLatency::28            0      0.00%    100.00% # Latency to complete the pagewalk
system.gpu.shader_mmu.pagewalkLatency::29            0      0.00%    100.00% # Latency to complete the pagewalk
system.gpu.shader_mmu.pagewalkLatency::30            0      0.00%    100.00% # Latency to complete the pagewalk
system.gpu.shader_mmu.pagewalkLatency::31            0      0.00%    100.00% # Latency to complete the pagewalk
system.gpu.shader_mmu.pagewalkLatency::total          176                       # Latency to complete the pagewalk
system.gpu.kernels_started                          2                       # Number of kernels started
system.gpu.kernels_completed                        2                       # Number of kernels completed
system.gpu.ce.device_dtb.hits                       0                       # Number of hits in this TLB
system.gpu.ce.device_dtb.misses                     0                       # Number of misses in this TLB
system.gpu.ce.device_dtb.hitRate                  nan                       # Hit rate for this TLB
system.gpu.ce.host_dtb.hits                       402                       # Number of hits in this TLB
system.gpu.ce.host_dtb.misses                     176                       # Number of misses in this TLB
system.gpu.ce.host_dtb.hitRate               0.695502                       # Hit rate for this TLB
system.gpu.ce.numOperations                         8                       # Number of copy/memset operations
system.gpu.ce.opBytesRead                       73052                       # Number of copy bytes read
system.gpu.ce.opBytesWritten                    73052                       # Number of copy/memset bytes written
system.gpu.ce.opTimeTicks                    48452123                       # Total time spent in copy/memset operations
system.gpu.shader_cores0.itb.hits                   0                       # Number of hits in this TLB
system.gpu.shader_cores0.itb.misses                 0                       # Number of misses in this TLB
system.gpu.shader_cores0.itb.hitRate              nan                       # Hit rate for this TLB
system.gpu.shader_cores0.local_loads                0                       # Number of loads from local space
system.gpu.shader_cores0.local_stores               0                       # Number of stores to local space
system.gpu.shader_cores0.shared_loads            5056                       # Number of loads from shared space
system.gpu.shader_cores0.shared_stores           3072                       # Number of stores to shared space
system.gpu.shader_cores0.param_kernel_loads         7296                       # Number of loads from kernel parameter space
system.gpu.shader_cores0.param_local_loads            0                       # Number of loads from local parameter space
system.gpu.shader_cores0.param_local_stores            0                       # Number of stores to local parameter space
system.gpu.shader_cores0.const_loads                0                       # Number of loads from constant space
system.gpu.shader_cores0.tex_loads                  0                       # Number of loads from texture space
system.gpu.shader_cores0.global_loads            8256                       # Number of loads from global space
system.gpu.shader_cores0.global_stores           3136                       # Number of stores to global space
system.gpu.shader_cores0.surf_loads                 0                       # Number of loads from surface space
system.gpu.shader_cores0.generic_loads              0                       # Number of loads from generic spaces (global, shared, local)
system.gpu.shader_cores0.generic_stores             0                       # Number of stores to generic spaces (global, shared, local)
system.gpu.shader_cores0.inst_cache_requests           12                       # Number of instruction cache requests sent
system.gpu.shader_cores0.inst_cache_retries            0                       # Number of instruction cache retries
system.gpu.shader_cores0.inst_counts::0             0                       # Inst counts: 1: ALU, 2: MAD, 3: CTRL, 4: SFU, 5: MEM, 6: TEX, 7: NOP
system.gpu.shader_cores0.inst_counts::1        130176                       # Inst counts: 1: ALU, 2: MAD, 3: CTRL, 4: SFU, 5: MEM, 6: TEX, 7: NOP
system.gpu.shader_cores0.inst_counts::2          2048                       # Inst counts: 1: ALU, 2: MAD, 3: CTRL, 4: SFU, 5: MEM, 6: TEX, 7: NOP
system.gpu.shader_cores0.inst_counts::3         20416                       # Inst counts: 1: ALU, 2: MAD, 3: CTRL, 4: SFU, 5: MEM, 6: TEX, 7: NOP
system.gpu.shader_cores0.inst_counts::4          6144                       # Inst counts: 1: ALU, 2: MAD, 3: CTRL, 4: SFU, 5: MEM, 6: TEX, 7: NOP
system.gpu.shader_cores0.inst_counts::5         26816                       # Inst counts: 1: ALU, 2: MAD, 3: CTRL, 4: SFU, 5: MEM, 6: TEX, 7: NOP
system.gpu.shader_cores0.inst_counts::6             0                       # Inst counts: 1: ALU, 2: MAD, 3: CTRL, 4: SFU, 5: MEM, 6: TEX, 7: NOP
system.gpu.shader_cores0.inst_counts::7             0                       # Inst counts: 1: ALU, 2: MAD, 3: CTRL, 4: SFU, 5: MEM, 6: TEX, 7: NOP
system.gpu.shader_cores0.activeCycles            7008                       # Number of cycles this shader was executing a CTA
system.gpu.shader_cores0.notStalledCycles         4860                       # Number of cycles this shader was actually executing at least one instance
system.gpu.shader_cores0.instInstances         185600                       # Total instructions executed by all PEs in the core
system.gpu.shader_cores0.instPerCycle       26.484018                       # Instruction instances per cycle
system.gpu.shader_cores0.kernels_completed            2                       # Number of kernels completed
system.gpu.shader_cores0.lsq.data_tlb.hits            0                       # Number of hits in this TLB
system.gpu.shader_cores0.lsq.data_tlb.misses            0                       # Number of misses in this TLB
system.gpu.shader_cores0.lsq.data_tlb.hitRate          nan                       # Hit rate for this TLB
system.gpu.shader_cores0.lsq.warpInstBufActive::samples      8759770                       # Histogram of number of active warp inst buffers at a given time
system.gpu.shader_cores0.lsq.warpInstBufActive::mean     5.343393                       # Histogram of number of active warp inst buffers at a given time
system.gpu.shader_cores0.lsq.warpInstBufActive::gmean          nan                       # Histogram of number of active warp inst buffers at a given time
system.gpu.shader_cores0.lsq.warpInstBufActive::stdev     9.558869                       # Histogram of number of active warp inst buffers at a given time
system.gpu.shader_cores0.lsq.warpInstBufActive::0      4254133     48.56%     48.56% # Histogram of number of active warp inst buffers at a given time
system.gpu.shader_cores0.lsq.warpInstBufActive::1      1020306     11.65%     60.21% # Histogram of number of active warp inst buffers at a given time
system.gpu.shader_cores0.lsq.warpInstBufActive::2       651624      7.44%     67.65% # Histogram of number of active warp inst buffers at a given time
system.gpu.shader_cores0.lsq.warpInstBufActive::3       237214      2.71%     70.36% # Histogram of number of active warp inst buffers at a given time
system.gpu.shader_cores0.lsq.warpInstBufActive::4       224353      2.56%     72.92% # Histogram of number of active warp inst buffers at a given time
system.gpu.shader_cores0.lsq.warpInstBufActive::5       155761      1.78%     74.70% # Histogram of number of active warp inst buffers at a given time
system.gpu.shader_cores0.lsq.warpInstBufActive::6       167193      1.91%     76.61% # Histogram of number of active warp inst buffers at a given time
system.gpu.shader_cores0.lsq.warpInstBufActive::7       148616      1.70%     78.30% # Histogram of number of active warp inst buffers at a given time
system.gpu.shader_cores0.lsq.warpInstBufActive::8       210063      2.40%     80.70% # Histogram of number of active warp inst buffers at a given time
system.gpu.shader_cores0.lsq.warpInstBufActive::9       124323      1.42%     82.12% # Histogram of number of active warp inst buffers at a given time
system.gpu.shader_cores0.lsq.warpInstBufActive::10       105746      1.21%     83.33% # Histogram of number of active warp inst buffers at a given time
system.gpu.shader_cores0.lsq.warpInstBufActive::11       105746      1.21%     84.54% # Histogram of number of active warp inst buffers at a given time
system.gpu.shader_cores0.lsq.warpInstBufActive::12       151474      1.73%     86.26% # Histogram of number of active warp inst buffers at a given time
system.gpu.shader_cores0.lsq.warpInstBufActive::13        50015      0.57%     86.84% # Histogram of number of active warp inst buffers at a given time
system.gpu.shader_cores0.lsq.warpInstBufActive::14        27151      0.31%     87.15% # Histogram of number of active warp inst buffers at a given time
system.gpu.shader_cores0.lsq.warpInstBufActive::15        14290      0.16%     87.31% # Histogram of number of active warp inst buffers at a given time
system.gpu.shader_cores0.lsq.warpInstBufActive::16         4287      0.05%     87.36% # Histogram of number of active warp inst buffers at a given time
system.gpu.shader_cores0.lsq.warpInstBufActive::17        22864      0.26%     87.62% # Histogram of number of active warp inst buffers at a given time
system.gpu.shader_cores0.lsq.warpInstBufActive::18        20006      0.23%     87.85% # Histogram of number of active warp inst buffers at a given time
system.gpu.shader_cores0.lsq.warpInstBufActive::19         7145      0.08%     87.93% # Histogram of number of active warp inst buffers at a given time
system.gpu.shader_cores0.lsq.warpInstBufActive::20        30009      0.34%     88.27% # Histogram of number of active warp inst buffers at a given time
system.gpu.shader_cores0.lsq.warpInstBufActive::21        48586      0.55%     88.83% # Histogram of number of active warp inst buffers at a given time
system.gpu.shader_cores0.lsq.warpInstBufActive::22        30009      0.34%     89.17% # Histogram of number of active warp inst buffers at a given time
system.gpu.shader_cores0.lsq.warpInstBufActive::23         4287      0.05%     89.22% # Histogram of number of active warp inst buffers at a given time
system.gpu.shader_cores0.lsq.warpInstBufActive::24         4287      0.05%     89.27% # Histogram of number of active warp inst buffers at a given time
system.gpu.shader_cores0.lsq.warpInstBufActive::25        12861      0.15%     89.41% # Histogram of number of active warp inst buffers at a given time
system.gpu.shader_cores0.lsq.warpInstBufActive::26        34296      0.39%     89.80% # Histogram of number of active warp inst buffers at a given time
system.gpu.shader_cores0.lsq.warpInstBufActive::27        28580      0.33%     90.13% # Histogram of number of active warp inst buffers at a given time
system.gpu.shader_cores0.lsq.warpInstBufActive::28        77166      0.88%     91.01% # Histogram of number of active warp inst buffers at a given time
system.gpu.shader_cores0.lsq.warpInstBufActive::29        91456      1.04%     92.06% # Histogram of number of active warp inst buffers at a given time
system.gpu.shader_cores0.lsq.warpInstBufActive::30       150045      1.71%     93.77% # Histogram of number of active warp inst buffers at a given time
system.gpu.shader_cores0.lsq.warpInstBufActive::31       232927      2.66%     96.43% # Histogram of number of active warp inst buffers at a given time
system.gpu.shader_cores0.lsq.warpInstBufActive::32       312951      3.57%    100.00% # Histogram of number of active warp inst buffers at a given time
system.gpu.shader_cores0.lsq.warpInstBufActive::33            0      0.00%    100.00% # Histogram of number of active warp inst buffers at a given time
system.gpu.shader_cores0.lsq.warpInstBufActive::34            0      0.00%    100.00% # Histogram of number of active warp inst buffers at a given time
system.gpu.shader_cores0.lsq.warpInstBufActive::35            0      0.00%    100.00% # Histogram of number of active warp inst buffers at a given time
system.gpu.shader_cores0.lsq.warpInstBufActive::36            0      0.00%    100.00% # Histogram of number of active warp inst buffers at a given time
system.gpu.shader_cores0.lsq.warpInstBufActive::37            0      0.00%    100.00% # Histogram of number of active warp inst buffers at a given time
system.gpu.shader_cores0.lsq.warpInstBufActive::38            0      0.00%    100.00% # Histogram of number of active warp inst buffers at a given time
system.gpu.shader_cores0.lsq.warpInstBufActive::39            0      0.00%    100.00% # Histogram of number of active warp inst buffers at a given time
system.gpu.shader_cores0.lsq.warpInstBufActive::40            0      0.00%    100.00% # Histogram of number of active warp inst buffers at a given time
system.gpu.shader_cores0.lsq.warpInstBufActive::41            0      0.00%    100.00% # Histogram of number of active warp inst buffers at a given time
system.gpu.shader_cores0.lsq.warpInstBufActive::42            0      0.00%    100.00% # Histogram of number of active warp inst buffers at a given time
system.gpu.shader_cores0.lsq.warpInstBufActive::43            0      0.00%    100.00% # Histogram of number of active warp inst buffers at a given time
system.gpu.shader_cores0.lsq.warpInstBufActive::44            0      0.00%    100.00% # Histogram of number of active warp inst buffers at a given time
system.gpu.shader_cores0.lsq.warpInstBufActive::45            0      0.00%    100.00% # Histogram of number of active warp inst buffers at a given time
system.gpu.shader_cores0.lsq.warpInstBufActive::46            0      0.00%    100.00% # Histogram of number of active warp inst buffers at a given time
system.gpu.shader_cores0.lsq.warpInstBufActive::47            0      0.00%    100.00% # Histogram of number of active warp inst buffers at a given time
system.gpu.shader_cores0.lsq.warpInstBufActive::48            0      0.00%    100.00% # Histogram of number of active warp inst buffers at a given time
system.gpu.shader_cores0.lsq.warpInstBufActive::49            0      0.00%    100.00% # Histogram of number of active warp inst buffers at a given time
system.gpu.shader_cores0.lsq.warpInstBufActive::50            0      0.00%    100.00% # Histogram of number of active warp inst buffers at a given time
system.gpu.shader_cores0.lsq.warpInstBufActive::51            0      0.00%    100.00% # Histogram of number of active warp inst buffers at a given time
system.gpu.shader_cores0.lsq.warpInstBufActive::52            0      0.00%    100.00% # Histogram of number of active warp inst buffers at a given time
system.gpu.shader_cores0.lsq.warpInstBufActive::53            0      0.00%    100.00% # Histogram of number of active warp inst buffers at a given time
system.gpu.shader_cores0.lsq.warpInstBufActive::54            0      0.00%    100.00% # Histogram of number of active warp inst buffers at a given time
system.gpu.shader_cores0.lsq.warpInstBufActive::55            0      0.00%    100.00% # Histogram of number of active warp inst buffers at a given time
system.gpu.shader_cores0.lsq.warpInstBufActive::56            0      0.00%    100.00% # Histogram of number of active warp inst buffers at a given time
system.gpu.shader_cores0.lsq.warpInstBufActive::57            0      0.00%    100.00% # Histogram of number of active warp inst buffers at a given time
system.gpu.shader_cores0.lsq.warpInstBufActive::58            0      0.00%    100.00% # Histogram of number of active warp inst buffers at a given time
system.gpu.shader_cores0.lsq.warpInstBufActive::59            0      0.00%    100.00% # Histogram of number of active warp inst buffers at a given time
system.gpu.shader_cores0.lsq.warpInstBufActive::60            0      0.00%    100.00% # Histogram of number of active warp inst buffers at a given time
system.gpu.shader_cores0.lsq.warpInstBufActive::61            0      0.00%    100.00% # Histogram of number of active warp inst buffers at a given time
system.gpu.shader_cores0.lsq.warpInstBufActive::62            0      0.00%    100.00% # Histogram of number of active warp inst buffers at a given time
system.gpu.shader_cores0.lsq.warpInstBufActive::63            0      0.00%    100.00% # Histogram of number of active warp inst buffers at a given time
system.gpu.shader_cores0.lsq.warpInstBufActive::64            0      0.00%    100.00% # Histogram of number of active warp inst buffers at a given time
system.gpu.shader_cores0.lsq.warpInstBufActive::total      8759770                       # Histogram of number of active warp inst buffers at a given time
system.gpu.shader_cores0.lsq.cacheAccesses     0.003188                       # Average number of concurrent outstanding cache accesses
system.gpu.shader_cores0.lsq.writebackBlockedCycles           90                       # Number of cycles blocked for core writeback stage
system.gpu.shader_cores0.lsq.mshrHitQueued          152                       # Number of hits on blocked lines in MSHRs
system.gpu.shader_cores0.lsq.mshrsFullCycles            0                       # Number of cycles stalled waiting for an MSHR
system.gpu.shader_cores0.lsq.mshrsFullCount            0                       # Number of times MSHRs filled
system.gpu.shader_cores0.lsq.warpCoalescedAccesses::samples          416                       # Number of coalesced accesses per warp instruction
system.gpu.shader_cores0.lsq.warpCoalescedAccesses::mean     1.769231                       # Number of coalesced accesses per warp instruction
system.gpu.shader_cores0.lsq.warpCoalescedAccesses::gmean     1.608176                       # Number of coalesced accesses per warp instruction
system.gpu.shader_cores0.lsq.warpCoalescedAccesses::stdev     0.763388                       # Number of coalesced accesses per warp instruction
system.gpu.shader_cores0.lsq.warpCoalescedAccesses::0            0      0.00%      0.00% # Number of coalesced accesses per warp instruction
system.gpu.shader_cores0.lsq.warpCoalescedAccesses::1          180     43.27%     43.27% # Number of coalesced accesses per warp instruction
system.gpu.shader_cores0.lsq.warpCoalescedAccesses::2          152     36.54%     79.81% # Number of coalesced accesses per warp instruction
system.gpu.shader_cores0.lsq.warpCoalescedAccesses::3           84     20.19%    100.00% # Number of coalesced accesses per warp instruction
system.gpu.shader_cores0.lsq.warpCoalescedAccesses::4            0      0.00%    100.00% # Number of coalesced accesses per warp instruction
system.gpu.shader_cores0.lsq.warpCoalescedAccesses::5            0      0.00%    100.00% # Number of coalesced accesses per warp instruction
system.gpu.shader_cores0.lsq.warpCoalescedAccesses::6            0      0.00%    100.00% # Number of coalesced accesses per warp instruction
system.gpu.shader_cores0.lsq.warpCoalescedAccesses::7            0      0.00%    100.00% # Number of coalesced accesses per warp instruction
system.gpu.shader_cores0.lsq.warpCoalescedAccesses::8            0      0.00%    100.00% # Number of coalesced accesses per warp instruction
system.gpu.shader_cores0.lsq.warpCoalescedAccesses::9            0      0.00%    100.00% # Number of coalesced accesses per warp instruction
system.gpu.shader_cores0.lsq.warpCoalescedAccesses::10            0      0.00%    100.00% # Number of coalesced accesses per warp instruction
system.gpu.shader_cores0.lsq.warpCoalescedAccesses::11            0      0.00%    100.00% # Number of coalesced accesses per warp instruction
system.gpu.shader_cores0.lsq.warpCoalescedAccesses::12            0      0.00%    100.00% # Number of coalesced accesses per warp instruction
system.gpu.shader_cores0.lsq.warpCoalescedAccesses::13            0      0.00%    100.00% # Number of coalesced accesses per warp instruction
system.gpu.shader_cores0.lsq.warpCoalescedAccesses::14            0      0.00%    100.00% # Number of coalesced accesses per warp instruction
system.gpu.shader_cores0.lsq.warpCoalescedAccesses::15            0      0.00%    100.00% # Number of coalesced accesses per warp instruction
system.gpu.shader_cores0.lsq.warpCoalescedAccesses::16            0      0.00%    100.00% # Number of coalesced accesses per warp instruction
system.gpu.shader_cores0.lsq.warpCoalescedAccesses::17            0      0.00%    100.00% # Number of coalesced accesses per warp instruction
system.gpu.shader_cores0.lsq.warpCoalescedAccesses::18            0      0.00%    100.00% # Number of coalesced accesses per warp instruction
system.gpu.shader_cores0.lsq.warpCoalescedAccesses::19            0      0.00%    100.00% # Number of coalesced accesses per warp instruction
system.gpu.shader_cores0.lsq.warpCoalescedAccesses::20            0      0.00%    100.00% # Number of coalesced accesses per warp instruction
system.gpu.shader_cores0.lsq.warpCoalescedAccesses::21            0      0.00%    100.00% # Number of coalesced accesses per warp instruction
system.gpu.shader_cores0.lsq.warpCoalescedAccesses::22            0      0.00%    100.00% # Number of coalesced accesses per warp instruction
system.gpu.shader_cores0.lsq.warpCoalescedAccesses::23            0      0.00%    100.00% # Number of coalesced accesses per warp instruction
system.gpu.shader_cores0.lsq.warpCoalescedAccesses::24            0      0.00%    100.00% # Number of coalesced accesses per warp instruction
system.gpu.shader_cores0.lsq.warpCoalescedAccesses::25            0      0.00%    100.00% # Number of coalesced accesses per warp instruction
system.gpu.shader_cores0.lsq.warpCoalescedAccesses::26            0      0.00%    100.00% # Number of coalesced accesses per warp instruction
system.gpu.shader_cores0.lsq.warpCoalescedAccesses::27            0      0.00%    100.00% # Number of coalesced accesses per warp instruction
system.gpu.shader_cores0.lsq.warpCoalescedAccesses::28            0      0.00%    100.00% # Number of coalesced accesses per warp instruction
system.gpu.shader_cores0.lsq.warpCoalescedAccesses::29            0      0.00%    100.00% # Number of coalesced accesses per warp instruction
system.gpu.shader_cores0.lsq.warpCoalescedAccesses::30            0      0.00%    100.00% # Number of coalesced accesses per warp instruction
system.gpu.shader_cores0.lsq.warpCoalescedAccesses::31            0      0.00%    100.00% # Number of coalesced accesses per warp instruction
system.gpu.shader_cores0.lsq.warpCoalescedAccesses::32            0      0.00%    100.00% # Number of coalesced accesses per warp instruction
system.gpu.shader_cores0.lsq.warpCoalescedAccesses::total          416                       # Number of coalesced accesses per warp instruction
system.gpu.shader_cores0.lsq.warpLatencyRead::samples          288                       # Latency in cycles for whole warp to finish the read
system.gpu.shader_cores0.lsq.warpLatencyRead::mean    96.072917                       # Latency in cycles for whole warp to finish the read
system.gpu.shader_cores0.lsq.warpLatencyRead::gmean    41.190024                       # Latency in cycles for whole warp to finish the read
system.gpu.shader_cores0.lsq.warpLatencyRead::stdev   121.296933                       # Latency in cycles for whole warp to finish the read
system.gpu.shader_cores0.lsq.warpLatencyRead::0-31          166     57.64%     57.64% # Latency in cycles for whole warp to finish the read
system.gpu.shader_cores0.lsq.warpLatencyRead::32-63           14      4.86%     62.50% # Latency in cycles for whole warp to finish the read
system.gpu.shader_cores0.lsq.warpLatencyRead::64-95           12      4.17%     66.67% # Latency in cycles for whole warp to finish the read
system.gpu.shader_cores0.lsq.warpLatencyRead::96-127           19      6.60%     73.26% # Latency in cycles for whole warp to finish the read
system.gpu.shader_cores0.lsq.warpLatencyRead::128-159           12      4.17%     77.43% # Latency in cycles for whole warp to finish the read
system.gpu.shader_cores0.lsq.warpLatencyRead::160-191            5      1.74%     79.17% # Latency in cycles for whole warp to finish the read
system.gpu.shader_cores0.lsq.warpLatencyRead::192-223            5      1.74%     80.90% # Latency in cycles for whole warp to finish the read
system.gpu.shader_cores0.lsq.warpLatencyRead::224-255            6      2.08%     82.99% # Latency in cycles for whole warp to finish the read
system.gpu.shader_cores0.lsq.warpLatencyRead::256-287            4      1.39%     84.38% # Latency in cycles for whole warp to finish the read
system.gpu.shader_cores0.lsq.warpLatencyRead::288-319           13      4.51%     88.89% # Latency in cycles for whole warp to finish the read
system.gpu.shader_cores0.lsq.warpLatencyRead::320-351           18      6.25%     95.14% # Latency in cycles for whole warp to finish the read
system.gpu.shader_cores0.lsq.warpLatencyRead::352-383            8      2.78%     97.92% # Latency in cycles for whole warp to finish the read
system.gpu.shader_cores0.lsq.warpLatencyRead::384-415            6      2.08%    100.00% # Latency in cycles for whole warp to finish the read
system.gpu.shader_cores0.lsq.warpLatencyRead::416-447            0      0.00%    100.00% # Latency in cycles for whole warp to finish the read
system.gpu.shader_cores0.lsq.warpLatencyRead::448-479            0      0.00%    100.00% # Latency in cycles for whole warp to finish the read
system.gpu.shader_cores0.lsq.warpLatencyRead::480-511            0      0.00%    100.00% # Latency in cycles for whole warp to finish the read
system.gpu.shader_cores0.lsq.warpLatencyRead::total          288                       # Latency in cycles for whole warp to finish the read
system.gpu.shader_cores0.lsq.warpLatencyWrite::samples          128                       # Latency in cycles for whole warp to finish the write
system.gpu.shader_cores0.lsq.warpLatencyWrite::mean    20.664062                       # Latency in cycles for whole warp to finish the write
system.gpu.shader_cores0.lsq.warpLatencyWrite::gmean    18.776075                       # Latency in cycles for whole warp to finish the write
system.gpu.shader_cores0.lsq.warpLatencyWrite::stdev    11.579426                       # Latency in cycles for whole warp to finish the write
system.gpu.shader_cores0.lsq.warpLatencyWrite::0-7            0      0.00%      0.00% # Latency in cycles for whole warp to finish the write
system.gpu.shader_cores0.lsq.warpLatencyWrite::8-15           52     40.62%     40.62% # Latency in cycles for whole warp to finish the write
system.gpu.shader_cores0.lsq.warpLatencyWrite::16-23           50     39.06%     79.69% # Latency in cycles for whole warp to finish the write
system.gpu.shader_cores0.lsq.warpLatencyWrite::24-31           16     12.50%     92.19% # Latency in cycles for whole warp to finish the write
system.gpu.shader_cores0.lsq.warpLatencyWrite::32-39            2      1.56%     93.75% # Latency in cycles for whole warp to finish the write
system.gpu.shader_cores0.lsq.warpLatencyWrite::40-47            1      0.78%     94.53% # Latency in cycles for whole warp to finish the write
system.gpu.shader_cores0.lsq.warpLatencyWrite::48-55            1      0.78%     95.31% # Latency in cycles for whole warp to finish the write
system.gpu.shader_cores0.lsq.warpLatencyWrite::56-63            3      2.34%     97.66% # Latency in cycles for whole warp to finish the write
system.gpu.shader_cores0.lsq.warpLatencyWrite::64-71            3      2.34%    100.00% # Latency in cycles for whole warp to finish the write
system.gpu.shader_cores0.lsq.warpLatencyWrite::72-79            0      0.00%    100.00% # Latency in cycles for whole warp to finish the write
system.gpu.shader_cores0.lsq.warpLatencyWrite::80-87            0      0.00%    100.00% # Latency in cycles for whole warp to finish the write
system.gpu.shader_cores0.lsq.warpLatencyWrite::88-95            0      0.00%    100.00% # Latency in cycles for whole warp to finish the write
system.gpu.shader_cores0.lsq.warpLatencyWrite::96-103            0      0.00%    100.00% # Latency in cycles for whole warp to finish the write
system.gpu.shader_cores0.lsq.warpLatencyWrite::104-111            0      0.00%    100.00% # Latency in cycles for whole warp to finish the write
system.gpu.shader_cores0.lsq.warpLatencyWrite::112-119            0      0.00%    100.00% # Latency in cycles for whole warp to finish the write
system.gpu.shader_cores0.lsq.warpLatencyWrite::120-127            0      0.00%    100.00% # Latency in cycles for whole warp to finish the write
system.gpu.shader_cores0.lsq.warpLatencyWrite::total          128                       # Latency in cycles for whole warp to finish the write
system.gpu.shader_cores0.lsq.warpLatencyFence::samples          288                       # Latency in cycles for whole warp to finish the fence
system.gpu.shader_cores0.lsq.warpLatencyFence::mean     8.475694                       # Latency in cycles for whole warp to finish the fence
system.gpu.shader_cores0.lsq.warpLatencyFence::gmean     7.568039                       # Latency in cycles for whole warp to finish the fence
system.gpu.shader_cores0.lsq.warpLatencyFence::stdev     4.987731                       # Latency in cycles for whole warp to finish the fence
system.gpu.shader_cores0.lsq.warpLatencyFence::0-3            0      0.00%      0.00% # Latency in cycles for whole warp to finish the fence
system.gpu.shader_cores0.lsq.warpLatencyFence::4-7          218     75.69%     75.69% # Latency in cycles for whole warp to finish the fence
system.gpu.shader_cores0.lsq.warpLatencyFence::8-11           11      3.82%     79.51% # Latency in cycles for whole warp to finish the fence
system.gpu.shader_cores0.lsq.warpLatencyFence::12-15           26      9.03%     88.54% # Latency in cycles for whole warp to finish the fence
system.gpu.shader_cores0.lsq.warpLatencyFence::16-19           16      5.56%     94.10% # Latency in cycles for whole warp to finish the fence
system.gpu.shader_cores0.lsq.warpLatencyFence::20-23           12      4.17%     98.26% # Latency in cycles for whole warp to finish the fence
system.gpu.shader_cores0.lsq.warpLatencyFence::24-27            4      1.39%     99.65% # Latency in cycles for whole warp to finish the fence
system.gpu.shader_cores0.lsq.warpLatencyFence::28-31            0      0.00%     99.65% # Latency in cycles for whole warp to finish the fence
system.gpu.shader_cores0.lsq.warpLatencyFence::32-35            1      0.35%    100.00% # Latency in cycles for whole warp to finish the fence
system.gpu.shader_cores0.lsq.warpLatencyFence::36-39            0      0.00%    100.00% # Latency in cycles for whole warp to finish the fence
system.gpu.shader_cores0.lsq.warpLatencyFence::40-43            0      0.00%    100.00% # Latency in cycles for whole warp to finish the fence
system.gpu.shader_cores0.lsq.warpLatencyFence::44-47            0      0.00%    100.00% # Latency in cycles for whole warp to finish the fence
system.gpu.shader_cores0.lsq.warpLatencyFence::48-51            0      0.00%    100.00% # Latency in cycles for whole warp to finish the fence
system.gpu.shader_cores0.lsq.warpLatencyFence::52-55            0      0.00%    100.00% # Latency in cycles for whole warp to finish the fence
system.gpu.shader_cores0.lsq.warpLatencyFence::56-59            0      0.00%    100.00% # Latency in cycles for whole warp to finish the fence
system.gpu.shader_cores0.lsq.warpLatencyFence::60-63            0      0.00%    100.00% # Latency in cycles for whole warp to finish the fence
system.gpu.shader_cores0.lsq.warpLatencyFence::total          288                       # Latency in cycles for whole warp to finish the fence
system.gpu.shader_cores0.lsq.warpLatencyAtomic::samples            0                       # Latency in cycles for whole warp to finish the atomic
system.gpu.shader_cores0.lsq.warpLatencyAtomic::mean          nan                       # Latency in cycles for whole warp to finish the atomic
system.gpu.shader_cores0.lsq.warpLatencyAtomic::gmean          nan                       # Latency in cycles for whole warp to finish the atomic
system.gpu.shader_cores0.lsq.warpLatencyAtomic::stdev          nan                       # Latency in cycles for whole warp to finish the atomic
system.gpu.shader_cores0.lsq.warpLatencyAtomic::0            0                       # Latency in cycles for whole warp to finish the atomic
system.gpu.shader_cores0.lsq.warpLatencyAtomic::1            0                       # Latency in cycles for whole warp to finish the atomic
system.gpu.shader_cores0.lsq.warpLatencyAtomic::2            0                       # Latency in cycles for whole warp to finish the atomic
system.gpu.shader_cores0.lsq.warpLatencyAtomic::3            0                       # Latency in cycles for whole warp to finish the atomic
system.gpu.shader_cores0.lsq.warpLatencyAtomic::4            0                       # Latency in cycles for whole warp to finish the atomic
system.gpu.shader_cores0.lsq.warpLatencyAtomic::5            0                       # Latency in cycles for whole warp to finish the atomic
system.gpu.shader_cores0.lsq.warpLatencyAtomic::6            0                       # Latency in cycles for whole warp to finish the atomic
system.gpu.shader_cores0.lsq.warpLatencyAtomic::7            0                       # Latency in cycles for whole warp to finish the atomic
system.gpu.shader_cores0.lsq.warpLatencyAtomic::8            0                       # Latency in cycles for whole warp to finish the atomic
system.gpu.shader_cores0.lsq.warpLatencyAtomic::9            0                       # Latency in cycles for whole warp to finish the atomic
system.gpu.shader_cores0.lsq.warpLatencyAtomic::10            0                       # Latency in cycles for whole warp to finish the atomic
system.gpu.shader_cores0.lsq.warpLatencyAtomic::11            0                       # Latency in cycles for whole warp to finish the atomic
system.gpu.shader_cores0.lsq.warpLatencyAtomic::12            0                       # Latency in cycles for whole warp to finish the atomic
system.gpu.shader_cores0.lsq.warpLatencyAtomic::13            0                       # Latency in cycles for whole warp to finish the atomic
system.gpu.shader_cores0.lsq.warpLatencyAtomic::14            0                       # Latency in cycles for whole warp to finish the atomic
system.gpu.shader_cores0.lsq.warpLatencyAtomic::15            0                       # Latency in cycles for whole warp to finish the atomic
system.gpu.shader_cores0.lsq.warpLatencyAtomic::total            0                       # Latency in cycles for whole warp to finish the atomic
system.gpu.shader_cores0.lsq.tlbMissLatency::samples            0                       # Latency in cycles for TLB miss
system.gpu.shader_cores0.lsq.tlbMissLatency::mean          nan                       # Latency in cycles for TLB miss
system.gpu.shader_cores0.lsq.tlbMissLatency::gmean          nan                       # Latency in cycles for TLB miss
system.gpu.shader_cores0.lsq.tlbMissLatency::stdev          nan                       # Latency in cycles for TLB miss
system.gpu.shader_cores0.lsq.tlbMissLatency::0            0                       # Latency in cycles for TLB miss
system.gpu.shader_cores0.lsq.tlbMissLatency::1            0                       # Latency in cycles for TLB miss
system.gpu.shader_cores0.lsq.tlbMissLatency::2            0                       # Latency in cycles for TLB miss
system.gpu.shader_cores0.lsq.tlbMissLatency::3            0                       # Latency in cycles for TLB miss
system.gpu.shader_cores0.lsq.tlbMissLatency::4            0                       # Latency in cycles for TLB miss
system.gpu.shader_cores0.lsq.tlbMissLatency::5            0                       # Latency in cycles for TLB miss
system.gpu.shader_cores0.lsq.tlbMissLatency::6            0                       # Latency in cycles for TLB miss
system.gpu.shader_cores0.lsq.tlbMissLatency::7            0                       # Latency in cycles for TLB miss
system.gpu.shader_cores0.lsq.tlbMissLatency::8            0                       # Latency in cycles for TLB miss
system.gpu.shader_cores0.lsq.tlbMissLatency::9            0                       # Latency in cycles for TLB miss
system.gpu.shader_cores0.lsq.tlbMissLatency::10            0                       # Latency in cycles for TLB miss
system.gpu.shader_cores0.lsq.tlbMissLatency::11            0                       # Latency in cycles for TLB miss
system.gpu.shader_cores0.lsq.tlbMissLatency::12            0                       # Latency in cycles for TLB miss
system.gpu.shader_cores0.lsq.tlbMissLatency::13            0                       # Latency in cycles for TLB miss
system.gpu.shader_cores0.lsq.tlbMissLatency::14            0                       # Latency in cycles for TLB miss
system.gpu.shader_cores0.lsq.tlbMissLatency::15            0                       # Latency in cycles for TLB miss
system.gpu.shader_cores0.lsq.tlbMissLatency::total            0                       # Latency in cycles for TLB miss
system.gpu.shader_cores1.itb.hits                   0                       # Number of hits in this TLB
system.gpu.shader_cores1.itb.misses                 0                       # Number of misses in this TLB
system.gpu.shader_cores1.itb.hitRate              nan                       # Hit rate for this TLB
system.gpu.shader_cores1.local_loads                0                       # Number of loads from local space
system.gpu.shader_cores1.local_stores               0                       # Number of stores to local space
system.gpu.shader_cores1.shared_loads            5056                       # Number of loads from shared space
system.gpu.shader_cores1.shared_stores           3072                       # Number of stores to shared space
system.gpu.shader_cores1.param_kernel_loads         7296                       # Number of loads from kernel parameter space
system.gpu.shader_cores1.param_local_loads            0                       # Number of loads from local parameter space
system.gpu.shader_cores1.param_local_stores            0                       # Number of stores to local parameter space
system.gpu.shader_cores1.const_loads                0                       # Number of loads from constant space
system.gpu.shader_cores1.tex_loads                  0                       # Number of loads from texture space
system.gpu.shader_cores1.global_loads            8336                       # Number of loads from global space
system.gpu.shader_cores1.global_stores           3168                       # Number of stores to global space
system.gpu.shader_cores1.surf_loads                 0                       # Number of loads from surface space
system.gpu.shader_cores1.generic_loads              0                       # Number of loads from generic spaces (global, shared, local)
system.gpu.shader_cores1.generic_stores             0                       # Number of stores to generic spaces (global, shared, local)
system.gpu.shader_cores1.inst_cache_requests           13                       # Number of instruction cache requests sent
system.gpu.shader_cores1.inst_cache_retries            0                       # Number of instruction cache retries
system.gpu.shader_cores1.inst_counts::0             0                       # Inst counts: 1: ALU, 2: MAD, 3: CTRL, 4: SFU, 5: MEM, 6: TEX, 7: NOP
system.gpu.shader_cores1.inst_counts::1        130432                       # Inst counts: 1: ALU, 2: MAD, 3: CTRL, 4: SFU, 5: MEM, 6: TEX, 7: NOP
system.gpu.shader_cores1.inst_counts::2          2080                       # Inst counts: 1: ALU, 2: MAD, 3: CTRL, 4: SFU, 5: MEM, 6: TEX, 7: NOP
system.gpu.shader_cores1.inst_counts::3         20400                       # Inst counts: 1: ALU, 2: MAD, 3: CTRL, 4: SFU, 5: MEM, 6: TEX, 7: NOP
system.gpu.shader_cores1.inst_counts::4          6144                       # Inst counts: 1: ALU, 2: MAD, 3: CTRL, 4: SFU, 5: MEM, 6: TEX, 7: NOP
system.gpu.shader_cores1.inst_counts::5         26928                       # Inst counts: 1: ALU, 2: MAD, 3: CTRL, 4: SFU, 5: MEM, 6: TEX, 7: NOP
system.gpu.shader_cores1.inst_counts::6             0                       # Inst counts: 1: ALU, 2: MAD, 3: CTRL, 4: SFU, 5: MEM, 6: TEX, 7: NOP
system.gpu.shader_cores1.inst_counts::7             0                       # Inst counts: 1: ALU, 2: MAD, 3: CTRL, 4: SFU, 5: MEM, 6: TEX, 7: NOP
[...]
system.ruby.L1Cache_Controller.L1_Replacement::total        19228                      
system.ruby.L1Cache_Controller.Fwd_GETX  |          20      9.48%      9.48% |          43     20.38%     29.86% |          48     22.75%     52.61% |          49     23.22%     75.83% |          51     24.17%    100.00% |           0      0.00%    100.00% |           0      0.00%    100.00%
system.ruby.L1Cache_Controller.Fwd_GETX::total          211                      
system.ruby.L1Cache_Controller.Fwd_GETS  |         190     44.71%     44.71% |          59     13.88%     58.59% |          54     12.71%     71.29% |          47     11.06%     82.35% |          50     11.76%     94.12% |           0      0.00%     94.12% |          25      5.88%    100.00%
system.ruby.L1Cache_Controller.Fwd_GETS::total          425                      
system.ruby.L1Cache_Controller.Data      |           4      8.00%      8.00% |           0      0.00%      8.00% |           0      0.00%      8.00% |           0      0.00%      8.00% |           0      0.00%      8.00% |           0      0.00%      8.00% |          46     92.00%    100.00%
system.ruby.L1Cache_Controller.Data::total           50                      
system.ruby.L1Cache_Controller.Data_Exclusive |         634     54.14%     54.14% |          90      7.69%     61.83% |         110      9.39%     71.22% |          97      8.28%     79.50% |         108      9.22%     88.73% |           0      0.00%     88.73% |         132     11.27%    100.00%
system.ruby.L1Cache_Controller.Data_Exclusive::total         1171                      
system.ruby.L1Cache_Controller.DataS_fromL1 |          12      2.82%      2.82% |          27      6.35%      9.18% |          17      4.00%     13.18% |          16      3.76%     16.94% |          18      4.24%     21.18% |           0      0.00%     21.18% |         335     78.82%    100.00%
system.ruby.L1Cache_Controller.DataS_fromL1::total          425                      
system.ruby.L1Cache_Controller.Data_all_Acks |        6361     89.33%     89.33% |          26      0.37%     89.69% |          33      0.46%     90.16% |          35      0.49%     90.65% |          26      0.37%     91.01% |           0      0.00%     91.01% |         640      8.99%    100.00%
system.ruby.L1Cache_Controller.Data_all_Acks::total         7121                      
system.ruby.L1Cache_Controller.Ack       |          18     12.50%     12.50% |          31     21.53%     34.03% |           8      5.56%     39.58% |          13      9.03%     48.61% |          17     11.81%     60.42% |           0      0.00%     60.42% |          57     39.58%    100.00%
system.ruby.L1Cache_Controller.Ack::total          144                      
system.ruby.L1Cache_Controller.Ack_all   |          13     10.16%     10.16% |          31     24.22%     34.38% |           8      6.25%     40.62% |          13     10.16%     50.78% |          17     13.28%     64.06% |           0      0.00%     64.06% |          46     35.94%    100.00%
system.ruby.L1Cache_Controller.Ack_all::total          128                      
system.ruby.L1Cache_Controller.WB_Ack    |         824     54.93%     54.93% |           0      0.00%     54.93% |           0      0.00%     54.93% |           0      0.00%     54.93% |           0      0.00%     54.93% |           0      0.00%     54.93% |         676     45.07%    100.00%
system.ruby.L1Cache_Controller.WB_Ack::total         1500                      
system.ruby.L1Cache_Controller.NP.Load   |         625     40.74%     40.74% |          81      5.28%     46.02% |          85      5.54%     51.56% |          81      5.28%     56.84% |          85      5.54%     62.39% |           0      0.00%     62.39% |         577     37.61%    100.00%
system.ruby.L1Cache_Controller.NP.Load::total         1534                      
system.ruby.L1Cache_Controller.NP.Ifetch |        5530     99.12%     99.12% |          12      0.22%     99.34% |          13      0.23%     99.57% |          12      0.22%     99.78% |          12      0.22%    100.00% |           0      0.00%    100.00% |           0      0.00%    100.00%
system.ruby.L1Cache_Controller.NP.Ifetch::total         5579                      
system.ruby.L1Cache_Controller.NP.Store  |         828     58.31%     58.31% |           4      0.28%     58.59% |           4      0.28%     58.87% |           4      0.28%     59.15% |           4      0.28%     59.44% |           0      0.00%     59.44% |         576     40.56%    100.00%
system.ruby.L1Cache_Controller.NP.Store::total         1420                      
system.ruby.L1Cache_Controller.NP.Inv    |          15     62.50%     62.50% |           0      0.00%     62.50% |           0      0.00%     62.50% |           0      0.00%     62.50% |           0      0.00%     62.50% |           0      0.00%     62.50% |           9     37.50%    100.00%
system.ruby.L1Cache_Controller.NP.Inv::total           24                      
system.ruby.L1Cache_Controller.I.Load    |          24     13.04%     13.04% |          38     20.65%     33.70% |          42     22.83%     56.52% |          37     20.11%     76.63% |          43     23.37%    100.00% |           0      0.00%    100.00% |           0      0.00%    100.00%
system.ruby.L1Cache_Controller.I.Load::total          184                      
system.ruby.L1Cache_Controller.I.Store   |           4      8.00%      8.00% |           8     16.00%     24.00% |          16     32.00%     56.00% |          14     28.00%     84.00% |           8     16.00%    100.00% |           0      0.00%    100.00% |           0      0.00%    100.00%
system.ruby.L1Cache_Controller.I.Store::total           50                      
system.ruby.L1Cache_Controller.I.L1_Replacement |          14     46.67%     46.67% |           0      0.00%     46.67% |           0      0.00%     46.67% |           0      0.00%     46.67% |           0      0.00%     46.67% |           0      0.00%     46.67% |          16     53.33%    100.00%
system.ruby.L1Cache_Controller.I.L1_Replacement::total           30                      
system.ruby.L1Cache_Controller.S.Load    |         545     45.88%     45.88% |         166     13.97%     59.85% |         150     12.63%     72.47% |         167     14.06%     86.53% |         160     13.47%    100.00% |           0      0.00%    100.00% |           0      0.00%    100.00%
system.ruby.L1Cache_Controller.S.Load::total         1188                      
system.ruby.L1Cache_Controller.S.Ifetch  |     6659718    100.00%    100.00% |           0      0.00%    100.00% |           0      0.00%    100.00% |           0      0.00%    100.00% |           0      0.00%    100.00% |           0      0.00%    100.00% |           0      0.00%    100.00%
system.ruby.L1Cache_Controller.S.Ifetch::total      6659718                      
system.ruby.L1Cache_Controller.S.Store   |           9     11.54%     11.54% |          31     39.74%     51.28% |           8     10.26%     61.54% |          13     16.67%     78.21% |          17     21.79%    100.00% |           0      0.00%    100.00% |           0      0.00%    100.00%
system.ruby.L1Cache_Controller.S.Store::total           78                      
system.ruby.L1Cache_Controller.S.Inv     |          88     51.76%     51.76% |          16      9.41%     61.18% |          21     12.35%     73.53% |          16      9.41%     82.94% |          12      7.06%     90.00% |           0      0.00%     90.00% |          17     10.00%    100.00%
system.ruby.L1Cache_Controller.S.Inv::total          170                      
system.ruby.L1Cache_Controller.S.L1_Replacement |        5384     92.24%     92.24% |           0      0.00%     92.24% |           0      0.00%     92.24% |           0      0.00%     92.24% |           0      0.00%     92.24% |           0      0.00%     92.24% |         453      7.76%    100.00%
system.ruby.L1Cache_Controller.S.L1_Replacement::total         5837                      
system.ruby.L1Cache_Controller.E.Load    |      135262     99.63%     99.63% |         126      0.09%     99.72% |         133      0.10%     99.82% |         136      0.10%     99.92% |         114      0.08%    100.00% |           0      0.00%    100.00% |           0      0.00%    100.00%
system.ruby.L1Cache_Controller.E.Load::total       135771                      
system.ruby.L1Cache_Controller.E.Store   |         310     46.97%     46.97% |          71     10.76%     57.73% |          99     15.00%     72.73% |          84     12.73%     85.45% |          96     14.55%    100.00% |           0      0.00%    100.00% |           0      0.00%    100.00%
system.ruby.L1Cache_Controller.E.Store::total          660                      
system.ruby.L1Cache_Controller.E.L1_Replacement |         235     64.03%     64.03% |           0      0.00%     64.03% |           0      0.00%     64.03% |           0      0.00%     64.03% |           0      0.00%     64.03% |           0      0.00%     64.03% |         132     35.97%    100.00%
system.ruby.L1Cache_Controller.E.L1_Replacement::total          367                      
system.ruby.L1Cache_Controller.E.Fwd_GETX |          12    100.00%    100.00% |           0      0.00%    100.00% |           0      0.00%    100.00% |           0      0.00%    100.00% |           0      0.00%    100.00% |           0      0.00%    100.00% |           0      0.00%    100.00%
system.ruby.L1Cache_Controller.E.Fwd_GETX::total           12                      
system.ruby.L1Cache_Controller.E.Fwd_GETS |           3      5.17%      5.17% |          19     32.76%     37.93% |          11     18.97%     56.90% |          13     22.41%     79.31% |          12     20.69%    100.00% |           0      0.00%    100.00% |           0      0.00%    100.00%
system.ruby.L1Cache_Controller.E.Fwd_GETS::total           58                      
system.ruby.L1Cache_Controller.M.Load    |     1104016    100.00%    100.00% |          17      0.00%    100.00% |          11      0.00%    100.00% |           7      0.00%    100.00% |          14      0.00%    100.00% |           0      0.00%    100.00% |           0      0.00%    100.00%
system.ruby.L1Cache_Controller.M.Load::total      1104065                      
system.ruby.L1Cache_Controller.M.Store   |      844398     99.91%     99.91% |         194      0.02%     99.93% |         195      0.02%     99.95% |         193      0.02%     99.98% |         195      0.02%    100.00% |           0      0.00%    100.00% |           0      0.00%    100.00%
system.ruby.L1Cache_Controller.M.Store::total       845175                      
system.ruby.L1Cache_Controller.M.L1_Replacement |         589     51.99%     51.99% |           0      0.00%     51.99% |           0      0.00%     51.99% |           0      0.00%     51.99% |           0      0.00%     51.99% |           0      0.00%     51.99% |         544     48.01%    100.00%
system.ruby.L1Cache_Controller.M.L1_Replacement::total         1133                      
system.ruby.L1Cache_Controller.M.Fwd_GETX |           8      4.02%      4.02% |          43     21.61%     25.63% |          48     24.12%     49.75% |          49     24.62%     74.37% |          51     25.63%    100.00% |           0      0.00%    100.00% |           0      0.00%    100.00%
system.ruby.L1Cache_Controller.M.Fwd_GETX::total          199                      
system.ruby.L1Cache_Controller.M.Fwd_GETS |         187     50.95%     50.95% |          40     10.90%     61.85% |          43     11.72%     73.57% |          34      9.26%     82.83% |          38     10.35%     93.19% |           0      0.00%     93.19% |          25      6.81%    100.00%
system.ruby.L1Cache_Controller.M.Fwd_GETS::total          367                      
system.ruby.L1Cache_Controller.IS.L1_Replacement |           0      0.00%      0.00% |           0      0.00%      0.00% |           0      0.00%      0.00% |           0      0.00%      0.00% |           0      0.00%      0.00% |           0      0.00%      0.00% |        6255    100.00%    100.00%
system.ruby.L1Cache_Controller.IS.L1_Replacement::total         6255                      
system.ruby.L1Cache_Controller.IS.Data_Exclusive |         634     54.14%     54.14% |          90      7.69%     61.83% |         110      9.39%     71.22% |          97      8.28%     79.50% |         108      9.22%     88.73% |           0      0.00%     88.73% |         132     11.27%    100.00%
system.ruby.L1Cache_Controller.IS.Data_Exclusive::total         1171                      
system.ruby.L1Cache_Controller.IS.DataS_fromL1 |          12      2.82%      2.82% |          27      6.35%      9.18% |          17      4.00%     13.18% |          16      3.76%     16.94% |          18      4.24%     21.18% |           0      0.00%     21.18% |         335     78.82%    100.00%
system.ruby.L1Cache_Controller.IS.DataS_fromL1::total          425                      
system.ruby.L1Cache_Controller.IS.Data_all_Acks |        5533     97.05%     97.05% |          14      0.25%     97.30% |          13      0.23%     97.53% |          17      0.30%     97.82% |          14      0.25%     98.07% |           0      0.00%     98.07% |         110      1.93%    100.00%
system.ruby.L1Cache_Controller.IS.Data_all_Acks::total         5701                      
system.ruby.L1Cache_Controller.IM.L1_Replacement |           0      0.00%      0.00% |           0      0.00%      0.00% |           0      0.00%      0.00% |           0      0.00%      0.00% |           0      0.00%      0.00% |           0      0.00%      0.00% |        5498    100.00%    100.00%
system.ruby.L1Cache_Controller.IM.L1_Replacement::total         5498                      
system.ruby.L1Cache_Controller.IM.Data   |           4      8.00%      8.00% |           0      0.00%      8.00% |           0      0.00%      8.00% |           0      0.00%      8.00% |           0      0.00%      8.00% |           0      0.00%      8.00% |          46     92.00%    100.00%
system.ruby.L1Cache_Controller.IM.Data::total           50                      
system.ruby.L1Cache_Controller.IM.Data_all_Acks |         828     58.31%     58.31% |          12      0.85%     59.15% |          20      1.41%     60.56% |          18      1.27%     61.83% |          12      0.85%     62.68% |           0      0.00%     62.68% |         530     37.32%    100.00%
system.ruby.L1Cache_Controller.IM.Data_all_Acks::total         1420                      
system.ruby.L1Cache_Controller.IM.Ack    |           0      0.00%      0.00% |           0      0.00%      0.00% |           0      0.00%      0.00% |           0      0.00%      0.00% |           0      0.00%      0.00% |           0      0.00%      0.00% |          57    100.00%    100.00%
system.ruby.L1Cache_Controller.IM.Ack::total           57                      
system.ruby.L1Cache_Controller.SM.L1_Replacement |           0      0.00%      0.00% |           0      0.00%      0.00% |           0      0.00%      0.00% |           0      0.00%      0.00% |           0      0.00%      0.00% |           0      0.00%      0.00% |         108    100.00%    100.00%
system.ruby.L1Cache_Controller.SM.L1_Replacement::total          108                      
system.ruby.L1Cache_Controller.SM.Ack    |          18     20.69%     20.69% |          31     35.63%     56.32% |           8      9.20%     65.52% |          13     14.94%     80.46% |          17     19.54%    100.00% |           0      0.00%    100.00% |           0      0.00%    100.00%
system.ruby.L1Cache_Controller.SM.Ack::total           87                      
system.ruby.L1Cache_Controller.SM.Ack_all |          13     10.16%     10.16% |          31     24.22%     34.38% |           8      6.25%     40.62% |          13     10.16%     50.78% |          17     13.28%     64.06% |           0      0.00%     64.06% |          46     35.94%    100.00%
system.ruby.L1Cache_Controller.SM.Ack_all::total          128                      
system.ruby.L1Cache_Controller.M_I.Ifetch |           2    100.00%    100.00% |           0      0.00%    100.00% |           0      0.00%    100.00% |           0      0.00%    100.00% |           0      0.00%    100.00% |           0      0.00%    100.00% |           0      0.00%    100.00%
system.ruby.L1Cache_Controller.M_I.Ifetch::total            2                      
system.ruby.L1Cache_Controller.M_I.WB_Ack |         824     54.93%     54.93% |           0      0.00%     54.93% |           0      0.00%     54.93% |           0      0.00%     54.93% |           0      0.00%     54.93% |           0      0.00%     54.93% |         676     45.07%    100.00%
system.ruby.L1Cache_Controller.M_I.WB_Ack::total         1500                      
system.ruby.L2Cache_Controller.L1_GET_INSTR         5579      0.00%      0.00%
system.ruby.L2Cache_Controller.L1_GETS           1762      0.00%      0.00%
system.ruby.L2Cache_Controller.L1_GETX           1475      0.00%      0.00%
system.ruby.L2Cache_Controller.L1_UPGRADE           78      0.00%      0.00%
system.ruby.L2Cache_Controller.L1_PUTX           1500      0.00%      0.00%
system.ruby.L2Cache_Controller.Mem_Data          1678      0.00%      0.00%
system.ruby.L2Cache_Controller.WB_Data            367      0.00%      0.00%
system.ruby.L2Cache_Controller.WB_Data_clean           58      0.00%      0.00%
system.ruby.L2Cache_Controller.Unblock            425      0.00%      0.00%
system.ruby.L2Cache_Controller.Exclusive_Unblock         2719      0.00%      0.00%
system.ruby.L2Cache_Controller.NP.L1_GET_INSTR          472      0.00%      0.00%
system.ruby.L2Cache_Controller.NP.L1_GETS          122      0.00%      0.00%
system.ruby.L2Cache_Controller.NP.L1_GETX         1084      0.00%      0.00%
system.ruby.L2Cache_Controller.SS.L1_GET_INSTR         5083      0.00%      0.00%
system.ruby.L2Cache_Controller.SS.L1_GETS          122      0.00%      0.00%
system.ruby.L2Cache_Controller.SS.L1_GETX          107      0.00%      0.00%
system.ruby.L2Cache_Controller.SS.L1_UPGRADE           78      0.00%      0.00%
system.ruby.L2Cache_Controller.M.L1_GET_INSTR            3      0.00%      0.00%
system.ruby.L2Cache_Controller.M.L1_GETS         1049      0.00%      0.00%
system.ruby.L2Cache_Controller.M.L1_GETX           68      0.00%      0.00%
system.ruby.L2Cache_Controller.MT.L1_GETS          425      0.00%      0.00%
system.ruby.L2Cache_Controller.MT.L1_GETX          211      0.00%      0.00%
system.ruby.L2Cache_Controller.MT.L1_PUTX         1500      0.00%      0.00%
system.ruby.L2Cache_Controller.ISS.Mem_Data          122      0.00%      0.00%
system.ruby.L2Cache_Controller.IS.L1_GET_INSTR           21      0.00%      0.00%
system.ruby.L2Cache_Controller.IS.Mem_Data          472      0.00%      0.00%
system.ruby.L2Cache_Controller.IM.L1_GETX            5      0.00%      0.00%
system.ruby.L2Cache_Controller.IM.Mem_Data         1084      0.00%      0.00%
system.ruby.L2Cache_Controller.SS_MB.Exclusive_Unblock          185      0.00%      0.00%
system.ruby.L2Cache_Controller.MT_MB.L1_GETS           40      0.00%      0.00%
system.ruby.L2Cache_Controller.MT_MB.Exclusive_Unblock         2534      0.00%      0.00%
system.ruby.L2Cache_Controller.MT_IIB.L1_GETS            4      0.00%      0.00%
system.ruby.L2Cache_Controller.MT_IIB.WB_Data          130      0.00%      0.00%
system.ruby.L2Cache_Controller.MT_IIB.WB_Data_clean           11      0.00%      0.00%
system.ruby.L2Cache_Controller.MT_IIB.Unblock          284      0.00%      0.00%
system.ruby.L2Cache_Controller.MT_IB.WB_Data          237      0.00%      0.00%
system.ruby.L2Cache_Controller.MT_IB.WB_Data_clean           47      0.00%      0.00%
system.ruby.L2Cache_Controller.MT_SB.Unblock          141      0.00%      0.00%

---------- End Simulation Statistics   ----------
