
---------- Begin Simulation Statistics ----------
sim_seconds                                  0.017681                       # Number of seconds simulated
sim_ticks                                 17680798500                       # Number of ticks simulated
final_tick                                17680798500                       # Number of ticks from beginning of simulation (restored from checkpoints and never reset)
sim_freq                                 1000000000000                       # Frequency of simulated ticks
host_inst_rate                                  97525                       # Simulator instruction rate (inst/s)
host_op_rate                                   186314                       # Simulator op (including micro ops) rate (op/s)
host_tick_rate                              347620225                       # Simulator tick rate (ticks/s)
host_mem_usage                                2392000                       # Number of bytes of host memory used
host_seconds                                    50.86                       # Real time elapsed on the host
sim_insts                                     4960342                       # Number of instructions simulated
sim_ops                                       9476372                       # Number of ops (including micro ops) simulated
system.voltage_domain.voltage                       1                       # Voltage in Volts
system.clk_domain.clock                          1000                       # Clock period in ticks
system.mem_ctrls.bytes_read::gpu.shader_cores0.data        34944                       # Number of bytes read from this memory
system.mem_ctrls.bytes_read::gpu.shader_cores0.inst          288                       # Number of bytes read from this memory
system.mem_ctrls.bytes_read::gpu.shader_cores1.data        35584                       # Number of bytes read from this memory
system.mem_ctrls.bytes_read::gpu.shader_cores1.inst          312                       # Number of bytes read from this memory
system.mem_ctrls.bytes_read::gpu.shader_cores2.data        34944                       # Number of bytes read from this memory
system.mem_ctrls.bytes_read::gpu.shader_cores2.inst          288                       # Number of bytes read from this memory
system.mem_ctrls.bytes_read::gpu.shader_cores3.data        34944                       # Number of bytes read from this memory
system.mem_ctrls.bytes_read::gpu.shader_cores3.inst          288                       # Number of bytes read from this memory
system.mem_ctrls.bytes_read::gpu.ce             73052                       # Number of bytes read from this memory
system.mem_ctrls.bytes_read::cpu.inst        53320888                       # Number of bytes read from this memory
system.mem_ctrls.bytes_read::cpu.data         7972111                       # Number of bytes read from this memory
system.mem_ctrls.bytes_read::total           61507643                       # Number of bytes read from this memory
system.mem_ctrls.bytes_inst_read::gpu.shader_cores0.inst          288                       # Number of instructions bytes read from this memory
system.mem_ctrls.bytes_inst_read::gpu.shader_cores1.inst          312                       # Number of instructions bytes read from this memory
system.mem_ctrls.bytes_inst_read::gpu.shader_cores2.inst          288                       # Number of instructions bytes read from this memory
system.mem_ctrls.bytes_inst_read::gpu.shader_cores3.inst          288                       # Number of instructions bytes read from this memory
system.mem_ctrls.bytes_inst_read::cpu.inst     53320888                       # Number of instructions bytes read from this memory
system.mem_ctrls.bytes_inst_read::total      53322064                       # Number of instructions bytes read from this memory
system.mem_ctrls.bytes_written::gpu.shader_cores0.data        12544                       # Number of bytes written to this memory
system.mem_ctrls.bytes_written::gpu.shader_cores1.data        12672                       # Number of bytes written to this memory
system.mem_ctrls.bytes_written::gpu.shader_cores2.data        12544                       # Number of bytes written to this memory
system.mem_ctrls.bytes_written::gpu.shader_cores3.data        12544                       # Number of bytes written to this memory
system.mem_ctrls.bytes_written::gpu.ce          73052                       # Number of bytes written to this memory
system.mem_ctrls.bytes_written::cpu.data      4969927                       # Number of bytes written to this memory
system.mem_ctrls.bytes_written::total         5093283                       # Number of bytes written to this memory
system.mem_ctrls.num_reads::gpu.shader_cores0.data          422                       # Number of read requests responded to by this memory
system.mem_ctrls.num_reads::gpu.shader_cores0.inst           12                       # Number of read requests responded to by this memory
system.mem_ctrls.num_reads::gpu.shader_cores1.data          427                       # Number of read requests responded to by this memory
system.mem_ctrls.num_reads::gpu.shader_cores1.inst           13                       # Number of read requests responded to by this memory
system.mem_ctrls.num_reads::gpu.shader_cores2.data          422                       # Number of read requests responded to by this memory
system.mem_ctrls.num_reads::gpu.shader_cores2.inst           12                       # Number of read requests responded to by this memory
system.mem_ctrls.num_reads::gpu.shader_cores3.data          422                       # Number of read requests responded to by this memory
system.mem_ctrls.num_reads::gpu.shader_cores3.inst           12                       # Number of read requests responded to by this memory
system.mem_ctrls.num_reads::gpu.ce                577                       # Number of read requests responded to by this memory
system.mem_ctrls.num_reads::cpu.inst          6665111                       # Number of read requests responded to by this memory
system.mem_ctrls.num_reads::cpu.data          1297860                       # Number of read requests responded to by this memory
system.mem_ctrls.num_reads::total             7965290                       # Number of read requests responded to by this memory
system.mem_ctrls.num_writes::gpu.shader_cores0.data          314                       # Number of write requests responded to by this memory
system.mem_ctrls.num_writes::gpu.shader_cores1.data          316                       # Number of write requests responded to by this memory
system.mem_ctrls.num_writes::gpu.shader_cores2.data          314                       # Number of write requests responded to by this memory
system.mem_ctrls.num_writes::gpu.shader_cores3.data          314                       # Number of write requests responded to by this memory
system.mem_ctrls.num_writes::gpu.ce               576                       # Number of write requests responded to by this memory
system.mem_ctrls.num_writes::cpu.data          788149                       # Number of write requests responded to by this memory
system.mem_ctrls.num_writes::total             789983                       # Number of write requests responded to by this memory
system.mem_ctrls.bw_read::gpu.shader_cores0.data      1976381                       # Total read bandwidth from this memory (bytes/s)
system.mem_ctrls.bw_read::gpu.shader_cores0.inst        16289                       # Total read bandwidth from this memory (bytes/s)
system.mem_ctrls.bw_read::gpu.shader_cores1.data      2012579                       # Total read bandwidth from this memory (bytes/s)
system.mem_ctrls.bw_read::gpu.shader_cores1.inst        17646                       # Total read bandwidth from this memory (bytes/s)
system.mem_ctrls.bw_read::gpu.shader_cores2.data      1976381                       # Total read bandwidth from this memory (bytes/s)
system.mem_ctrls.bw_read::gpu.shader_cores2.inst        16289                       # Total read bandwidth from this memory (bytes/s)
system.mem_ctrls.bw_read::gpu.shader_cores3.data      1976381                       # Total read bandwidth from this memory (bytes/s)
system.mem_ctrls.bw_read::gpu.shader_cores3.inst        16289                       # Total read bandwidth from this memory (bytes/s)
system.mem_ctrls.bw_read::gpu.ce              4131714                       # Total read bandwidth from this memory (bytes/s)
system.mem_ctrls.bw_read::cpu.inst         3015751127                       # Total read bandwidth from this memory (bytes/s)
system.mem_ctrls.bw_read::cpu.data          450890892                       # Total read bandwidth from this memory (bytes/s)
system.mem_ctrls.bw_read::total            3478781968                       # Total read bandwidth from this memory (bytes/s)
system.mem_ctrls.bw_inst_read::gpu.shader_cores0.inst        16289                       # Instruction read bandwidth from this memory (bytes/s)
system.mem_ctrls.bw_inst_read::gpu.shader_cores1.inst        17646                       # Instruction read bandwidth from this memory (bytes/s)
system.mem_ctrls.bw_inst_read::gpu.shader_cores2.inst        16289                       # Instruction read bandwidth from this memory (bytes/s)
system.mem_ctrls.bw_inst_read::gpu.shader_cores3.inst        16289                       # Instruction read bandwidth from this memory (bytes/s)
system.mem_ctrls.bw_inst_read::cpu.inst    3015751127                       # Instruction read bandwidth from this memory (bytes/s)
system.mem_ctrls.bw_inst_read::total       3015817640                       # Instruction read bandwidth from this memory (bytes/s)
system.mem_ctrls.bw_write::gpu.shader_cores0.data       709470                       # Write bandwidth from this memory (bytes/s)
system.mem_ctrls.bw_write::gpu.shader_cores1.data       716710                       # Write bandwidth from this memory (bytes/s)
system.mem_ctrls.bw_write::gpu.shader_cores2.data       709470                       # Write bandwidth from this memory (bytes/s)
system.mem_ctrls.bw_write::gpu.shader_cores3.data       709470                       # Write bandwidth from this memory (bytes/s)
system.mem_ctrls.bw_write::gpu.ce             4131714                       # Write bandwidth from this memory (bytes/s)
system.mem_ctrls.bw_write::cpu.data         281091773                       # Write bandwidth from this memory (bytes/s)
system.mem_ctrls.bw_write::total            288068607                       # Write bandwidth from this memory (bytes/s)
system.mem_ctrls.bw_total::gpu.shader_cores0.data      2685852                       # Total bandwidth to/from this memory (bytes/s)
system.mem_ctrls.bw_total::gpu.shader_cores0.inst        16289                       # Total bandwidth to/from this memory (bytes/s)
system.mem_ctrls.bw_total::gpu.shader_cores1.data      2729288                       # Total bandwidth to/from this memory (bytes/s)
system.mem_ctrls.bw_total::gpu.shader_cores1.inst        17646                       # Total bandwidth to/from this memory (bytes/s)
system.mem_ctrls.bw_total::gpu.shader_cores2.data      2685852                       # Total bandwidth to/from this memory (bytes/s)
system.mem_ctrls.bw_total::gpu.shader_cores2.inst        16289                       # Total bandwidth to/from this memory (bytes/s)
system.mem_ctrls.bw_total::gpu.shader_cores3.data      2685852                       # Total bandwidth to/from this memory (bytes/s)
system.mem_ctrls.bw_total::gpu.shader_cores3.inst        16289                       # Total bandwidth to/from this memory (bytes/s)
system.mem_ctrls.bw_total::gpu.ce             8263428                       # Total bandwidth to/from this memory (bytes/s)
system.mem_ctrls.bw_total::cpu.inst        3015751127                       # Total bandwidth to/from this memory (bytes/s)
system.mem_ctrls.bw_total::cpu.data         731982665                       # Total bandwidth to/from this memory (bytes/s)
system.mem_ctrls.bw_total::total           3766850575                       # Total bandwidth to/from this memory (bytes/s)
system.ruby_clk_domain.clock                      500                       # Clock period in ticks
system.ruby.delayHist::bucket_size                256                       # delay histogram for all message
system.ruby.delayHist::max_bucket                2559                       # delay histogram for all message
system.ruby.delayHist::samples                  26723                       # delay histogram for all message
system.ruby.delayHist::mean                 22.999289                       # delay histogram for all message
system.ruby.delayHist::stdev               161.305296                       # delay histogram for all message
system.ruby.delayHist                    |       26346     98.59%     98.59% |          56      0.21%     98.80% |          54      0.20%     99.00% |          65      0.24%     99.24% |          32      0.12%     99.36% |          21      0.08%     99.44% |          25      0.09%     99.54% |         124      0.46%    100.00% |           0      0.00%    100.00% |           0      0.00%    100.00% # delay histogram for all message
system.ruby.delayHist::total                    26723                       # delay histogram for all message
system.ruby.outstanding_req_hist::bucket_size            8                      
system.ruby.outstanding_req_hist::max_bucket           79                      
system.ruby.outstanding_req_hist::samples      8755274                      
system.ruby.outstanding_req_hist::mean       1.008458                      
system.ruby.outstanding_req_hist::gmean      1.000830                      
system.ruby.outstanding_req_hist::stdev      0.648623                      
system.ruby.outstanding_req_hist         |     8753423     99.98%     99.98% |         317      0.00%     99.98% |         201      0.00%     99.98% |         382      0.00%     99.99% |          55      0.00%     99.99% |          54      0.00%     99.99% |         110      0.00%     99.99% |          89      0.00%     99.99% |         643      0.01%    100.00% |           0      0.00%    100.00%
system.ruby.outstanding_req_hist::total       8755274                      
system.ruby.latency_hist::bucket_size             256                      
system.ruby.latency_hist::max_bucket             2559                      
system.ruby.latency_hist::samples             8755273                      
system.ruby.latency_hist::mean               3.157279                      
system.ruby.latency_hist::gmean              3.007490                      
system.ruby.latency_hist::stdev             11.435477                      
system.ruby.latency_hist                 |     8754108     99.99%     99.99% |         287      0.00%     99.99% |         285      0.00%     99.99% |         310      0.00%    100.00% |          77      0.00%    100.00% |          70      0.00%    100.00% |          80      0.00%    100.00% |          44      0.00%    100.00% |          12      0.00%    100.00% |           0      0.00%    100.00%
system.ruby.latency_hist::total               8755273                      
system.ruby.hit_latency_hist::bucket_size            1                      
system.ruby.hit_latency_hist::max_bucket            9                      
system.ruby.hit_latency_hist::samples         8746482                      
system.ruby.hit_latency_hist::mean           2.999456                      
system.ruby.hit_latency_hist::gmean          2.999104                      
system.ruby.hit_latency_hist::stdev          0.032966                      
system.ruby.hit_latency_hist             |           0      0.00%      0.00% |        2377      0.03%      0.03% |           0      0.00%      0.03% |     8744105     99.97%    100.00% |           0      0.00%    100.00% |           0      0.00%    100.00% |           0      0.00%    100.00% |           0      0.00%    100.00% |           0      0.00%    100.00% |           0      0.00%    100.00%
system.ruby.hit_latency_hist::total           8746482                      
system.ruby.miss_latency_hist::bucket_size          256                      
system.ruby.miss_latency_hist::max_bucket         2559                      
system.ruby.miss_latency_hist::samples           8791                      
system.ruby.miss_latency_hist::mean        160.180412                      
system.ruby.miss_latency_hist::gmean        48.373909                      
system.ruby.miss_latency_hist::stdev       324.913152                      
system.ruby.miss_latency_hist            |        7626     86.75%     86.75% |         287      3.26%     90.01% |         285      3.24%     93.25% |         310      3.53%     96.78% |          77      0.88%     97.66% |          70      0.80%     98.45% |          80      0.91%     99.36% |          44      0.50%     99.86% |          12      0.14%    100.00% |           0      0.00%    100.00%
system.ruby.miss_latency_hist::total             8791                      
system.ruby.l1_cntrl_ce.L1Dcache.demand_hits            0                       # Number of cache demand hits
system.ruby.l1_cntrl_ce.L1Dcache.demand_misses         1153                       # Number of cache demand misses
system.ruby.l1_cntrl_ce.L1Dcache.demand_accesses         1153                       # Number of cache demand accesses
system.ruby.l1_cntrl_ce.L1Icache.demand_hits            0                       # Number of cache demand hits
system.ruby.l1_cntrl_ce.L1Icache.demand_misses            0                       # Number of cache demand misses
system.ruby.l1_cntrl_ce.L1Icache.demand_accesses            0                       # Number of cache demand accesses
system.ruby.l1_cntrl_ce.prefetcher.miss_observed            0                       # number of misses observed
system.ruby.l1_cntrl_ce.prefetcher.allocated_streams            0                       # number of streams allocated for prefetching
system.ruby.l1_cntrl_ce.prefetcher.prefetches_requested            0                       # number of prefetch requests made
system.ruby.l1_cntrl_ce.prefetcher.prefetches_accepted            0                       # number of prefetch requests accepted
system.ruby.l1_cntrl_ce.prefetcher.dropped_prefetches            0                       # number of prefetch requests dropped
system.ruby.l1_cntrl_ce.prefetcher.hits             0                       # number of prefetched blocks accessed
system.ruby.l1_cntrl_ce.prefetcher.partial_hits            0                       # number of misses observed for a block being prefetched
system.ruby.l1_cntrl_ce.prefetcher.pages_crossed            0                       # number of prefetches across pages
system.ruby.l1_cntrl_ce.prefetcher.misses_on_prefetched_blocks            0                       # number of misses for blocks that were prefetched, yet missed
system.ruby.l1_cntrl_ce.fully_busy_cycles            4                       # cycles for which number of transistions == max transitions
system.ruby.l1_cntrl0.L1Dcache.demand_hits      2084524                       # Number of cache demand hits
system.ruby.l1_cntrl0.L1Dcache.demand_misses         1485                       # Number of cache demand misses
system.ruby.l1_cntrl0.L1Dcache.demand_accesses      2086009                       # Number of cache demand accesses
system.ruby.l1_cntrl0.L1Icache.demand_hits      6659581                       # Number of cache demand hits
system.ruby.l1_cntrl0.L1Icache.demand_misses         5530                       # Number of cache demand misses
system.ruby.l1_cntrl0.L1Icache.demand_accesses      6665111                       # Number of cache demand accesses
system.ruby.l1_cntrl0.prefetcher.miss_observed            0                       # number of misses observed
system.ruby.l1_cntrl0.prefetcher.allocated_streams            0                       # number of streams allocated for prefetching
system.ruby.l1_cntrl0.prefetcher.prefetches_requested            0                       # number of prefetch requests made
system.ruby.l1_cntrl0.prefetcher.prefetches_accepted            0                       # number of prefetch requests accepted
system.ruby.l1_cntrl0.prefetcher.dropped_prefetches            0                       # number of prefetch requests dropped
system.ruby.l1_cntrl0.prefetcher.hits               0                       # number of prefetched blocks accessed
system.ruby.l1_cntrl0.prefetcher.partial_hits            0                       # number of misses observed for a block being prefetched
system.ruby.l1_cntrl0.prefetcher.pages_crossed            0                       # number of prefetches across pages
system.ruby.l1_cntrl0.prefetcher.misses_on_prefetched_blocks            0                       # number of misses for blocks that were prefetched, yet missed
system.ruby.network.routers0.percent_links_utilized     0.103038                      
system.ruby.network.routers0.msg_count.Control::0         7015                      
system.ruby.network.routers0.msg_count.Request_Control::0          309                      
system.ruby.network.routers0.msg_count.Response_Data::1         7400                      
system.ruby.network.routers0.msg_count.Response_Control::1          955                      
system.ruby.network.routers0.msg_count.Response_Control::2         1482                      
system.ruby.network.routers0.msg_count.Writeback_Data::0          585                      
system.ruby.network.routers0.msg_count.Writeback_Control::0          237                      
system.ruby.network.routers0.msg_bytes.Control::0        56120                      
system.ruby.network.routers0.msg_bytes.Request_Control::0         2472                      
system.ruby.network.routers0.msg_bytes.Response_Data::1      1006400                      
system.ruby.network.routers0.msg_bytes.Response_Control::1         7640                      
system.ruby.network.routers0.msg_bytes.Response_Control::2        11856                      
system.ruby.network.routers0.msg_bytes.Writeback_Data::0        79560                      
system.ruby.network.routers0.msg_bytes.Writeback_Control::0         1896                      
system.ruby.l2_cntrl0.L2cache.demand_hits         6495                       # Number of cache demand hits
system.ruby.l2_cntrl0.L2cache.demand_misses         2296                       # Number of cache demand misses
system.ruby.l2_cntrl0.L2cache.demand_accesses         8791                       # Number of cache demand accesses
system.ruby.network.routers1.percent_links_utilized     0.147556                      
system.ruby.network.routers1.msg_count.Control::0        10467                      
system.ruby.network.routers1.msg_count.Request_Control::0          772                      
system.ruby.network.routers1.msg_count.Response_Data::1        10191                      
system.ruby.network.routers1.msg_count.Response_Control::1         1565                      
system.ruby.network.routers1.msg_count.Response_Control::2         3095                      
system.ruby.network.routers1.msg_count.Writeback_Data::0         1129                      
system.ruby.network.routers1.msg_count.Writeback_Control::0          373                      
system.ruby.network.routers1.msg_bytes.Control::0        83736                      
system.ruby.network.routers1.msg_bytes.Request_Control::0         6176                      
system.ruby.network.routers1.msg_bytes.Response_Data::1      1385976                      
system.ruby.network.routers1.msg_bytes.Response_Control::1        12520                      
system.ruby.network.routers1.msg_bytes.Response_Control::2        24760                      
system.ruby.network.routers1.msg_bytes.Writeback_Data::0       153544                      
system.ruby.network.routers1.msg_bytes.Writeback_Control::0         2984                      
system.ruby.dir_cntrl0.memBuffer.clk_domain.clock         2500                       # Clock period in ticks
system.ruby.dir_cntrl0.memBuffer.memReq          1676                       # Total number of memory requests
system.ruby.dir_cntrl0.memBuffer.memRead         1676                       # Number of memory reads
system.ruby.dir_cntrl0.memBuffer.memRefresh        12695                       # Number of memory refreshes
system.ruby.dir_cntrl0.memBuffer.memWaitCycles          416                       # Delay stalled at the head of the bank queue
system.ruby.dir_cntrl0.memBuffer.memInputQ           23                       # Delay in the input queue
system.ruby.dir_cntrl0.memBuffer.totalStalls          439                       # Total number of stall cycles
system.ruby.dir_cntrl0.memBuffer.stallsPerReq     0.261933                       # Expected number of stall cycles per request
system.ruby.dir_cntrl0.memBuffer.memBankBusy          185                       # memory stalls due to busy bank
system.ruby.dir_cntrl0.memBuffer.memBusBusy          122                       # memory stalls due to busy bus
system.ruby.dir_cntrl0.memBuffer.memDataBusBusy           63                       # memory stalls due to read read turnaround
system.ruby.dir_cntrl0.memBuffer.memArbWait           46                       # memory stalls due to arbitration
system.ruby.dir_cntrl0.memBuffer.memBankCount |          49      2.92%      2.92% |          54      3.22%      6.15% |          54      3.22%      9.37% |          56      3.34%     12.71% |          51      3.04%     15.75% |          50      2.98%     18.74% |          47      2.80%     21.54% |          50      2.98%     24.52% |          50      2.98%     27.51% |          49      2.92%     30.43% |          57      3.40%     33.83% |          50      2.98%     36.81% |          47      2.80%     39.62% |          50      2.98%     42.60% |          55      3.28%     45.88% |          54      3.22%     49.11% |          60      3.58%     52.68% |          62      3.70%     56.38% |          50      2.98%     59.37% |          54      3.22%     62.59% |          42      2.51%     65.10% |          44      2.63%     67.72% |          52      3.10%     70.82% |          59      3.52%     74.34% |          61      3.64%     77.98% |          56      3.34%     81.32% |          54      3.22%     84.55% |          50      2.98%     87.53% |          48      2.86%     90.39% |          52      3.10%     93.50% |          56      3.34%     96.84% |          53      3.16%    100.00% # Number of accesses per bank
system.ruby.dir_cntrl0.memBuffer.memBankCount::total         1676                       # Number of accesses per bank
system.ruby.network.routers2.percent_links_utilized     0.021328                      
system.ruby.network.routers2.msg_count.Control::0         1676                      
system.ruby.network.routers2.msg_count.Response_Data::1         1676                      
system.ruby.network.routers2.msg_bytes.Control::0        13408                      
system.ruby.network.routers2.msg_bytes.Response_Data::1       227936                      
system.ruby.l1_cntrl_sp00.L1Dcache.demand_hits          597                       # Number of cache demand hits
system.ruby.l1_cntrl_sp00.L1Dcache.demand_misses          139                       # Number of cache demand misses
system.ruby.l1_cntrl_sp00.L1Dcache.demand_accesses          736                       # Number of cache demand accesses
system.ruby.l1_cntrl_sp00.L1Icache.demand_hits            0                       # Number of cache demand hits
system.ruby.l1_cntrl_sp00.L1Icache.demand_misses           12                       # Number of cache demand misses
system.ruby.l1_cntrl_sp00.L1Icache.demand_accesses           12                       # Number of cache demand accesses
system.ruby.l1_cntrl_sp00.prefetcher.miss_observed            0                       # number of misses observed
system.ruby.l1_cntrl_sp00.prefetcher.allocated_streams            0                       # number of streams allocated for prefetching
system.ruby.l1_cntrl_sp00.prefetcher.prefetches_requested            0                       # number of prefetch requests made
system.ruby.l1_cntrl_sp00.prefetcher.prefetches_accepted            0                       # number of prefetch requests accepted
system.ruby.l1_cntrl_sp00.prefetcher.dropped_prefetches            0                       # number of prefetch requests dropped
system.ruby.l1_cntrl_sp00.prefetcher.hits            0                       # number of prefetched blocks accessed
system.ruby.l1_cntrl_sp00.prefetcher.partial_hits            0                       # number of misses observed for a block being prefetched
system.ruby.l1_cntrl_sp00.prefetcher.pages_crossed            0                       # number of prefetches across pages
system.ruby.l1_cntrl_sp00.prefetcher.misses_on_prefetched_blocks            0                       # number of misses for blocks that were prefetched, yet missed
system.ruby.network.routers3.percent_links_utilized     0.003493                      
system.ruby.network.routers3.msg_count.Control::0          151                      
system.ruby.network.routers3.msg_count.Request_Control::0           95                      
system.ruby.network.routers3.msg_count.Response_Data::1          265                      
system.ruby.network.routers3.msg_count.Response_Control::1           52                      
system.ruby.network.routers3.msg_count.Response_Control::2          138                      
system.ruby.network.routers3.msg_bytes.Control::0         1208                      
system.ruby.network.routers3.msg_bytes.Request_Control::0          760                      
system.ruby.network.routers3.msg_bytes.Response_Data::1        36040                      
system.ruby.network.routers3.msg_bytes.Response_Control::1          416                      
system.ruby.network.routers3.msg_bytes.Response_Control::2         1104                      
system.ruby.l1_cntrl_sp01.L1Dcache.demand_hits          590                       # Number of cache demand hits
system.ruby.l1_cntrl_sp01.L1Dcache.demand_misses          153                       # Number of cache demand misses
system.ruby.l1_cntrl_sp01.L1Dcache.demand_accesses          743                       # Number of cache demand accesses
system.ruby.l1_cntrl_sp01.L1Icache.demand_hits            0                       # Number of cache demand hits
system.ruby.l1_cntrl_sp01.L1Icache.demand_misses           13                       # Number of cache demand misses
system.ruby.l1_cntrl_sp01.L1Icache.demand_accesses           13                       # Number of cache demand accesses
system.ruby.l1_cntrl_sp01.prefetcher.miss_observed            0                       # number of misses observed
system.ruby.l1_cntrl_sp01.prefetcher.allocated_streams            0                       # number of streams allocated for prefetching
system.ruby.l1_cntrl_sp01.prefetcher.prefetches_requested            0                       # number of prefetch requests made
system.ruby.l1_cntrl_sp01.prefetcher.prefetches_accepted            0                       # number of prefetch requests accepted
system.ruby.l1_cntrl_sp01.prefetcher.dropped_prefetches            0                       # number of prefetch requests dropped
system.ruby.l1_cntrl_sp01.prefetcher.hits            0                       # number of prefetched blocks accessed
system.ruby.l1_cntrl_sp01.prefetcher.partial_hits            0                       # number of misses observed for a block being prefetched
system.ruby.l1_cntrl_sp01.prefetcher.pages_crossed            0                       # number of prefetches across pages
system.ruby.l1_cntrl_sp01.prefetcher.misses_on_prefetched_blocks            0                       # number of misses for blocks that were prefetched, yet missed
system.ruby.network.routers4.percent_links_utilized     0.003929                      
system.ruby.network.routers4.msg_count.Control::0          166                      
system.ruby.network.routers4.msg_count.Request_Control::0          115                      
system.ruby.network.routers4.msg_count.Response_Data::1          299                      
system.ruby.network.routers4.msg_count.Response_Control::1           41                      
system.ruby.network.routers4.msg_count.Response_Control::2          153                      
system.ruby.network.routers4.msg_bytes.Control::0         1328                      
system.ruby.network.routers4.msg_bytes.Request_Control::0          920                      
system.ruby.network.routers4.msg_bytes.Response_Data::1        40664                      
system.ruby.network.routers4.msg_bytes.Response_Control::1          328                      
system.ruby.network.routers4.msg_bytes.Response_Control::2         1224                      
system.ruby.l1_cntrl_sp02.L1Dcache.demand_hits          608                       # Number of cache demand hits
system.ruby.l1_cntrl_sp02.L1Dcache.demand_misses          128                       # Number of cache demand misses
system.ruby.l1_cntrl_sp02.L1Dcache.demand_accesses          736                       # Number of cache demand accesses
system.ruby.l1_cntrl_sp02.L1Icache.demand_hits            0                       # Number of cache demand hits
system.ruby.l1_cntrl_sp02.L1Icache.demand_misses           12                       # Number of cache demand misses
system.ruby.l1_cntrl_sp02.L1Icache.demand_accesses           12                       # Number of cache demand accesses
system.ruby.l1_cntrl_sp02.prefetcher.miss_observed            0                       # number of misses observed
system.ruby.l1_cntrl_sp02.prefetcher.allocated_streams            0                       # number of streams allocated for prefetching
system.ruby.l1_cntrl_sp02.prefetcher.prefetches_requested            0                       # number of prefetch requests made
system.ruby.l1_cntrl_sp02.prefetcher.prefetches_accepted            0                       # number of prefetch requests accepted
system.ruby.l1_cntrl_sp02.prefetcher.dropped_prefetches            0                       # number of prefetch requests dropped
system.ruby.l1_cntrl_sp02.prefetcher.hits            0                       # number of prefetched blocks accessed
system.ruby.l1_cntrl_sp02.prefetcher.partial_hits            0                       # number of misses observed for a block being prefetched
system.ruby.l1_cntrl_sp02.prefetcher.pages_crossed            0                       # number of prefetches across pages
system.ruby.l1_cntrl_sp02.prefetcher.misses_on_prefetched_blocks            0                       # number of misses for blocks that were prefetched, yet missed
system.ruby.network.routers5.percent_links_utilized     0.003379                      
system.ruby.network.routers5.msg_count.Control::0          140                      
system.ruby.network.routers5.msg_count.Request_Control::0           89                      
system.ruby.network.routers5.msg_count.Response_Data::1          259                      
system.ruby.network.routers5.msg_count.Response_Control::1           23                      
system.ruby.network.routers5.msg_count.Response_Control::2          125                      
system.ruby.network.routers5.msg_bytes.Control::0         1120                      
system.ruby.network.routers5.msg_bytes.Request_Control::0          712                      
system.ruby.network.routers5.msg_bytes.Response_Data::1        35224                      
system.ruby.network.routers5.msg_bytes.Response_Control::1          184                      
system.ruby.network.routers5.msg_bytes.Response_Control::2         1000                      
system.ruby.l1_cntrl_sp03.L1Dcache.demand_hits          582                       # Number of cache demand hits
system.ruby.l1_cntrl_sp03.L1Dcache.demand_misses          154                       # Number of cache demand misses
system.ruby.l1_cntrl_sp03.L1Dcache.demand_accesses          736                       # Number of cache demand accesses
system.ruby.l1_cntrl_sp03.L1Icache.demand_hits            0                       # Number of cache demand hits
system.ruby.l1_cntrl_sp03.L1Icache.demand_misses           12                       # Number of cache demand misses
system.ruby.l1_cntrl_sp03.L1Icache.demand_accesses           12                       # Number of cache demand accesses
system.ruby.l1_cntrl_sp03.prefetcher.miss_observed            0                       # number of misses observed
system.ruby.l1_cntrl_sp03.prefetcher.allocated_streams            0                       # number of streams allocated for prefetching
system.ruby.l1_cntrl_sp03.prefetcher.prefetches_requested            0                       # number of prefetch requests made
system.ruby.l1_cntrl_sp03.prefetcher.prefetches_accepted            0                       # number of prefetch requests accepted
system.ruby.l1_cntrl_sp03.prefetcher.dropped_prefetches            0                       # number of prefetch requests dropped
system.ruby.l1_cntrl_sp03.prefetcher.hits            0                       # number of prefetched blocks accessed
system.ruby.l1_cntrl_sp03.prefetcher.partial_hits            0                       # number of misses observed for a block being prefetched
system.ruby.l1_cntrl_sp03.prefetcher.pages_crossed            0                       # number of prefetches across pages
system.ruby.l1_cntrl_sp03.prefetcher.misses_on_prefetched_blocks            0                       # number of misses for blocks that were prefetched, yet missed
system.ruby.network.routers6.percent_links_utilized     0.004091                      
system.ruby.network.routers6.msg_count.Control::0          166                      
system.ruby.network.routers6.msg_count.Request_Control::0          122                      
system.ruby.network.routers6.msg_count.Response_Data::1          312                      
system.ruby.network.routers6.msg_count.Response_Control::1           42                      
system.ruby.network.routers6.msg_count.Response_Control::2          153                      
system.ruby.network.routers6.msg_bytes.Control::0         1328                      
system.ruby.network.routers6.msg_bytes.Request_Control::0          976                      
system.ruby.network.routers6.msg_bytes.Response_Data::1        42432                      
system.ruby.network.routers6.msg_bytes.Response_Control::1          336                      
system.ruby.network.routers6.msg_bytes.Response_Control::2         1224                      
system.ruby.l1_pw_cntrl.L1Dcache.demand_hits            0                       # Number of cache demand hits
system.ruby.l1_pw_cntrl.L1Dcache.demand_misses            0                       # Number of cache demand misses
system.ruby.l1_pw_cntrl.L1Dcache.demand_accesses            0                       # Number of cache demand accesses
system.ruby.l1_pw_cntrl.L1Icache.demand_hits            0                       # Number of cache demand hits
system.ruby.l1_pw_cntrl.L1Icache.demand_misses            0                       # Number of cache demand misses
system.ruby.l1_pw_cntrl.L1Icache.demand_accesses            0                       # Number of cache demand accesses
system.ruby.l1_pw_cntrl.prefetcher.miss_observed            0                       # number of misses observed
system.ruby.l1_pw_cntrl.prefetcher.allocated_streams            0                       # number of streams allocated for prefetching
system.ruby.l1_pw_cntrl.prefetcher.prefetches_requested            0                       # number of prefetch requests made
system.ruby.l1_pw_cntrl.prefetcher.prefetches_accepted            0                       # number of prefetch requests accepted
system.ruby.l1_pw_cntrl.prefetcher.dropped_prefetches            0                       # number of prefetch requests dropped
system.ruby.l1_pw_cntrl.prefetcher.hits             0                       # number of prefetched blocks accessed
system.ruby.l1_pw_cntrl.prefetcher.partial_hits            0                       # number of misses observed for a block being prefetched
system.ruby.l1_pw_cntrl.prefetcher.pages_crossed            0                       # number of prefetches across pages
system.ruby.l1_pw_cntrl.prefetcher.misses_on_prefetched_blocks            0                       # number of misses for blocks that were prefetched, yet missed
system.ruby.network.routers7.percent_links_utilized            0                      
system.ruby.network.routers8.percent_links_utilized     0.023253                      
system.ruby.network.routers8.msg_count.Control::0         1153                      
system.ruby.network.routers8.msg_count.Request_Control::0           51                      
system.ruby.network.routers8.msg_count.Response_Data::1         1203                      
system.ruby.network.routers8.msg_count.Response_Control::1          808                      
system.ruby.network.routers8.msg_count.Response_Control::2         1044                      
system.ruby.network.routers8.msg_count.Writeback_Data::0          544                      
system.ruby.network.routers8.msg_count.Writeback_Control::0          136                      
system.ruby.network.routers8.msg_bytes.Control::0         9224                      
system.ruby.network.routers8.msg_bytes.Request_Control::0          408                      
system.ruby.network.routers8.msg_bytes.Response_Data::1       163608                      
system.ruby.network.routers8.msg_bytes.Response_Control::1         6464                      
system.ruby.network.routers8.msg_bytes.Response_Control::2         8352                      
system.ruby.network.routers8.msg_bytes.Writeback_Data::0        73984                      
system.ruby.network.routers8.msg_bytes.Writeback_Control::0         1088                      
system.ruby.network.routers9.percent_links_utilized     0.034475                      
system.ruby.network.routers9.msg_count.Control::0        10467                      
system.ruby.network.routers9.msg_count.Request_Control::0          781                      
system.ruby.network.routers9.msg_count.Response_Data::1        10811                      
system.ruby.network.routers9.msg_count.Response_Control::1         1743                      
system.ruby.network.routers9.msg_count.Response_Control::2         3095                      
system.ruby.network.routers9.msg_count.Writeback_Data::0         1129                      
system.ruby.network.routers9.msg_count.Writeback_Control::0          373                      
system.ruby.network.routers9.msg_bytes.Control::0        83736                      
system.ruby.network.routers9.msg_bytes.Request_Control::0         6248                      
system.ruby.network.routers9.msg_bytes.Response_Data::1      1470296                      
system.ruby.network.routers9.msg_bytes.Response_Control::1        13944                      
system.ruby.network.routers9.msg_bytes.Response_Control::2        24760                      
system.ruby.network.routers9.msg_bytes.Writeback_Data::0       153544                      
system.ruby.network.routers9.msg_bytes.Writeback_Control::0         2984                      
system.ruby.network.msg_count.Control           31401                      
system.ruby.network.msg_count.Request_Control         2334                      
system.ruby.network.msg_count.Response_Data        32416                      
system.ruby.network.msg_count.Response_Control        14514                      
system.ruby.network.msg_count.Writeback_Data         3387                      
system.ruby.network.msg_count.Writeback_Control         1119                      
system.ruby.network.msg_byte.Control           251208                      
system.ruby.network.msg_byte.Request_Control        18672                      
system.ruby.network.msg_byte.Response_Data      4408576                      
system.ruby.network.msg_byte.Response_Control       116112                      
system.ruby.network.msg_byte.Writeback_Data       460632                      
system.ruby.network.msg_byte.Writeback_Control         8952                      
system.ruby.memctrl_clk_domain.clock             1500                       # Clock period in ticks
system.cpu_voltage_domain.voltage                   1                       # Voltage in Volts
system.gpu.voltage_domain.voltage                   1                       # Voltage in Volts
system.gpu.clk_domain.clock                      1429                       # Clock period in ticks
system.gpu.shader_mmu.numPagefaults                 0                       # Number of Pagefaults
system.gpu.shader_mmu.numPagewalks                168                       # Number of Pagewalks
system.gpu.shader_mmu.totalRequests               168                       # Total number of requests
system.gpu.shader_mmu.retryFailures                 0                       # Times the retry walk after a pagefault failed
system.gpu.shader_mmu.l2hits                        0                       # Hits in the shared L2
system.gpu.shader_mmu.prefetchHits                  0                       # Number of prefetch hits
system.gpu.shader_mmu.numPrefetches                 0                       # Number of prefetchs
system.gpu.shader_mmu.prefetchFaults                0                       # Number of faults caused by prefetches
system.gpu.shader_mmu.pagefaultLatency::samples            0                       # Latency to complete the pagefault
system.gpu.shader_mmu.pagefaultLatency::mean          nan                       # Latency to complete the pagefault
system.gpu.shader_mmu.pagefaultLatency::gmean          nan                       # Latency to complete the pagefault
system.gpu.shader_mmu.pagefaultLatency::stdev          nan                       # Latency to complete the pagefault
system.gpu.shader_mmu.pagefaultLatency::0            0                       # Latency to complete the pagefault
system.gpu.shader_mmu.pagefaultLatency::1            0                       # Latency to complete the pagefault
system.gpu.shader_mmu.pagefaultLatency::2            0                       # Latency to complete the pagefault
system.gpu.shader_mmu.pagefaultLatency::3            0                       # Latency to complete the pagefault
system.gpu.shader_mmu.pagefaultLatency::4            0                       # Latency to complete the pagefault
system.gpu.shader_mmu.pagefaultLatency::5            0                       # Latency to complete the pagefault
system.gpu.shader_mmu.pagefaultLatency::6            0                       # Latency to complete the pagefault
system.gpu.shader_mmu.pagefaultLatency::7            0                       # Latency to complete the pagefault
system.gpu.shader_mmu.pagefaultLatency::8            0                       # Latency to complete the pagefault
system.gpu.shader_mmu.pagefaultLatency::9            0                       # Latency to complete the pagefault
system.gpu.shader_mmu.pagefaultLatency::10            0                       # Latency to complete the pagefault
system.gpu.shader_mmu.pagefaultLatency::11            0                       # Latency to complete the pagefault
system.gpu.shader_mmu.pagefaultLatency::12            0                       # Latency to complete the pagefault
system.gpu.shader_mmu.pagefaultLatency::13            0                       # Latency to complete the pagefault
system.gpu.shader_mmu.pagefaultLatency::14            0                       # Latency to complete the pagefault
system.gpu.shader_mmu.pagefaultLatency::15            0                       # Latency to complete the pagefault
system.gpu.shader_mmu.pagefaultLatency::16            0                       # Latency to complete the pagefault
system.gpu.shader_mmu.pagefaultLatency::17            0                       # Latency to complete the pagefault
system.gpu.shader_mmu.pagefaultLatency::18            0                       # Latency to complete the pagefault
system.gpu.shader_mmu.pagefaultLatency::19            0                       # Latency to complete the pagefault
system.gpu.shader_mmu.pagefaultLatency::20            0                       # Latency to complete the pagefault
system.gpu.shader_mmu.pagefaultLatency::21            0                       # Latency to complete the pagefault
system.gpu.shader_mmu.pagefaultLatency::22            0                       # Latency to complete the pagefault
system.gpu.shader_mmu.pagefaultLatency::23            0                       # Latency to complete the pagefault
system.gpu.shader_mmu.pagefaultLatency::24            0                       # Latency to complete the pagefault
system.gpu.shader_mmu.pagefaultLatency::25            0                       # Latency to complete the pagefault
system.gpu.shader_mmu.pagefaultLatency::26            0                       # Latency to complete the pagefault
system.gpu.shader_mmu.pagefaultLatency::27            0                       # Latency to complete the pagefault
system.gpu.shader_mmu.pagefaultLatency::28            0                       # Latency to complete the pagefault
system.gpu.shader_mmu.pagefaultLatency::29            0                       # Latency to complete the pagefault
system.gpu.shader_mmu.pagefaultLatency::30            0                       # Latency to complete the pagefault
system.gpu.shader_mmu.pagefaultLatency::31            0                       # Latency to complete the pagefault
system.gpu.shader_mmu.pagefaultLatency::total            0                       # Latency to complete the pagefault
system.gpu.shader_mmu.concurrentWalks::samples          168                       # Number of outstanding walks
system.gpu.shader_mmu.concurrentWalks::mean            0                       # Number of outstanding walks
system.gpu.shader_mmu.concurrentWalks::gmean            0                       # Number of outstanding walks
system.gpu.shader_mmu.concurrentWalks::stdev            0                       # Number of outstanding walks
system.gpu.shader_mmu.concurrentWalks::0          168    100.00%    100.00% # Number of outstanding walks
system.gpu.shader_mmu.concurrentWalks::1            0      0.00%    100.00% # Number of outstanding walks
system.gpu.shader_mmu.concurrentWalks::2            0      0.00%    100.00% # Number of outstanding walks
system.gpu.shader_mmu.concurrentWalks::3            0      0.00%    100.00% # Number of outstanding walks
system.gpu.shader_mmu.concurrentWalks::4            0      0.00%    100.00% # Number of outstanding walks
system.gpu.shader_mmu.concurrentWalks::5            0      0.00%    100.00% # Number of outstanding walks
system.gpu.shader_mmu.concurrentWalks::6            0      0.00%    100.00% # Number of outstanding walks
system.gpu.shader_mmu.concurrentWalks::7            0      0.00%    100.00% # Number of outstanding walks
system.gpu.shader_mmu.concurrentWalks::8            0      0.00%    100.00% # Number of outstanding walks
system.gpu.shader_mmu.concurrentWalks::9            0      0.00%    100.00% # Number of outstanding walks
system.gpu.shader_mmu.concurrentWalks::10            0      0.00%    100.00% # Number of outstanding walks
system.gpu.shader_mmu.concurrentWalks::11            0      0.00%    100.00% # Number of outstanding walks
system.gpu.shader_mmu.concurrentWalks::12            0      0.00%    100.00% # Number of outstanding walks
system.gpu.shader_mmu.concurrentWalks::13            0      0.00%    100.00% # Number of outstanding walks
system.gpu.shader_mmu.concurrentWalks::14            0      0.00%    100.00% # Number of outstanding walks
system.gpu.shader_mmu.concurrentWalks::15            0      0.00%    100.00% # Number of outstanding walks
system.gpu.shader_mmu.concurrentWalks::total          168                       # Number of outstanding walks
system.gpu.shader_mmu.pagewalkLatency::samples          168                       # Latency to complete the pagewalk
system.gpu.shader_mmu.pagewalkLatency::mean            0                       # Latency to complete the pagewalk
system.gpu.shader_mmu.pagewalkLatency::gmean            0                       # Latency to complete the pagewalk
system.gpu.shader_mmu.pagewalkLatency::stdev            0                       # Latency to complete the pagewalk
system.gpu.shader_mmu.pagewalkLatency::0          168    100.00%    100.00% # Latency to complete the pagewalk
system.gpu.shader_mmu.pagewalkLatency::1            0      0.00%    100.00% # Latency to complete the pagewalk
system.gpu.shader_mmu.pagewalkLatency::2            0      0.00%    100.00% # Latency to complete the pagewalk
system.gpu.shader_mmu.pagewalkLatency::3            0      0.00%    100.00% # Latency to complete the pagewalk
system.gpu.shader_mmu.pagewalkLatency::4            0      0.00%    100.00% # Latency to complete the pagewalk
system.gpu.shader_mmu.pagewalkLatency::5            0      0.00%    100.00% # Latency to complete the pagewalk
system.gpu.shader_mmu.pagewalkLatency::6            0      0.00%    100.00% # Latency to complete the pagewalk
system.gpu.shader_mmu.pagewalkLatency::7            0      0.00%    100.00% # Latency to complete the pagewalk
system.gpu.shader_mmu.pagewalkLatency::8            0      0.00%    100.00% # Latency to complete the pagewalk
system.gpu.shader_mmu.pagewalkLatency::9            0      0.00%    100.00% # Latency to complete the pagewalk
system.gpu.shader_mmu.pagewalkLatency::10            0      0.00%    100.00% # Latency to complete the pagewalk
system.gpu.shader_mmu.pagewalkLatency::11            0      0.00%    100.00% # Latency to complete the pagewalk
system.gpu.shader_mmu.pagewalkLatency::12            0      0.00%    100.00% # Latency to complete the pagewalk
system.gpu.shader_mmu.pagewalkLatency::13            0      0.00%    100.00% # Latency to complete the pagewalk
system.gpu.shader_mmu.pagewalkLatency::14            0      0.00%    100.00% # Latency to complete the pagewalk
system.gpu.shader_mmu.pagewalkLatency::15            0      0.00%    100.00% # Latency to complete the pagewalk
system.gpu.shader_mmu.pagewalkLatency::16            0      0.00%    100.00% # Latency to complete the pagewalk
system.gpu.shader_mmu.pagewalkLatency::17            0      0.00%    100.00% # Latency to complete the pagewalk
system.gpu.shader_mmu.pagewalkLatency::18            0      0.00%    100.00% # Latency to complete the pagewalk
system.gpu.shader_mmu.pagewalkLatency::19            0      0.00%    100.00% # Latency to complete the pagewalk
system.gpu.shader_mmu.pagewalkLatency::20            0      0.00%    100.00% # Latency to complete the pagewalk
system.gpu.shader_mmu.pagewalkLatency::21            0      0.00%    100.00% # Latency to complete the pagewalk
system.gpu.shader_mmu.pagewalkLatency::22            0      0.00%    100.00% # Latency to complete the pagewalk
system.gpu.shader_mmu.pagewalkLatency::23            0      0.00%    100.00% # Latency to complete the pagewalk
system.gpu.shader_mmu.pagewalkLatency::24            0      0.00%    100.00% # Latency to complete the pagewalk
system.gpu.shader_mmu.pagewalkLatency::25            0      0.00%    100.00% # Latency to complete the pagewalk
system.gpu.shader_mmu.pagewalkLatency::26            0      0.00%    100.00% # Latency to complete the pagewalk
system.gpu.shader_mmu.pagewalkLatency::27            0      0.00%    100.00% # Latency to complete the pagewalk
system.gpu.shader_mmu.pagewalkLatency::28            0      0.00%    100.00% # Latency to complete the pagewalk
system.gpu.shader_mmu.pagewalkLatency::29            0      0.00%    100.00% # Latency to complete the pagewalk
system.gpu.shader_mmu.pagewalkLatency::30            0      0.00%    100.00% # Latency to complete the pagewalk
system.gpu.shader_mmu.pagewalkLatency::31            0      0.00%    100.00% # Latency to complete the pagewalk
system.gpu.shader_mmu.pagewalkLatency::total          168                       # Latency to complete the pagewalk
system.gpu.kernels_completed                        2                       # Number of kernels completed
system.gpu.shader_cores0.itb.hits                   0                       # Number of hits in this TLB
system.gpu.shader_cores0.itb.misses                 0                       # Number of misses in this TLB
system.gpu.shader_cores0.itb.hitRate              nan                       # Hit rate for this TLB
system.gpu.shader_cores0.local_loads                0                       # Number of loads from local space
system.gpu.shader_cores0.local_stores               0                       # Number of stores to local space
system.gpu.shader_cores0.shared_loads            5056                       # Number of loads from shared space
system.gpu.shader_cores0.shared_stores           3072                       # Number of stores to shared space
system.gpu.shader_cores0.param_kernel_loads         7296                       # Number of loads from kernel parameter space
system.gpu.shader_cores0.param_local_loads            0                       # Number of loads from local parameter space
system.gpu.shader_cores0.param_local_stores            0                       # Number of stores to local parameter space
system.gpu.shader_cores0.const_loads                0                       # Number of loads from constant space
system.gpu.shader_cores0.tex_loads                  0                       # Number of loads from texture space
system.gpu.shader_cores0.global_loads            8256                       # Number of loads from global space
system.gpu.shader_cores0.global_stores           3136                       # Number of stores to global space
system.gpu.shader_cores0.surf_loads                 0                       # Number of loads from surface space
system.gpu.shader_cores0.generic_loads              0                       # Number of loads from generic spaces (global, shared, local)
system.gpu.shader_cores0.generic_stores             0                       # Number of stores to generic spaces (global, shared, local)
system.gpu.shader_cores0.inst_cache_requests           12                       # Number of instruction cache requests sent
system.gpu.shader_cores0.inst_cache_retries            0                       # Number of instruction cache retries
system.gpu.shader_cores0.inst_counts::0             0                       # Inst counts: 1: ALU, 2: MAD, 3: CTRL, 4: SFU, 5: MEM, 6: TEX, 7: NOP
system.gpu.shader_cores0.inst_counts::1        130176                       # Inst counts: 1: ALU, 2: MAD, 3: CTRL, 4: SFU, 5: MEM, 6: TEX, 7: NOP
system.gpu.shader_cores0.inst_counts::2          2048                       # Inst counts: 1: ALU, 2: MAD, 3: CTRL, 4: SFU, 5: MEM, 6: TEX, 7: NOP
system.gpu.shader_cores0.inst_counts::3         20416                       # Inst counts: 1: ALU, 2: MAD, 3: CTRL, 4: SFU, 5: MEM, 6: TEX, 7: NOP
system.gpu.shader_cores0.inst_counts::4          6144                       # Inst counts: 1: ALU, 2: MAD, 3: CTRL, 4: SFU, 5: MEM, 6: TEX, 7: NOP
system.gpu.shader_cores0.inst_counts::5         26816                       # Inst counts: 1: ALU, 2: MAD, 3: CTRL, 4: SFU, 5: MEM, 6: TEX, 7: NOP
system.gpu.shader_cores0.inst_counts::6             0                       # Inst counts: 1: ALU, 2: MAD, 3: CTRL, 4: SFU, 5: MEM, 6: TEX, 7: NOP
system.gpu.shader_cores0.inst_counts::7             0                       # Inst counts: 1: ALU, 2: MAD, 3: CTRL, 4: SFU, 5: MEM, 6: TEX, 7: NOP
system.gpu.shader_cores0.activeCycles            7444                       # Number of cycles this shader was executing a CTA
system.gpu.shader_cores0.notStalledCycles         5917                       # Number of cycles this shader was actually executing at least one instance
system.gpu.shader_cores0.instInstances         185600                       # Total instructions executed by all PEs in the core
system.gpu.shader_cores0.instPerCycle       24.932832                       # Instruction instances per cycle
system.gpu.shader_cores0.kernels_completed            2                       # Number of kernels completed
system.gpu.shader_cores0.lsq.data_tlb.hits            0                       # Number of hits in this TLB
system.gpu.shader_cores0.lsq.data_tlb.misses            0                       # Number of misses in this TLB
system.gpu.shader_cores0.lsq.data_tlb.hitRate          nan                       # Hit rate for this TLB
system.gpu.shader_cores0.lsq.warpInstBufActive::samples      9070881                       # Histogram of number of active warp inst buffers at a given time
system.gpu.shader_cores0.lsq.warpInstBufActive::mean     3.598357                       # Histogram of number of active warp inst buffers at a given time
system.gpu.shader_cores0.lsq.warpInstBufActive::gmean          nan                       # Histogram of number of active warp inst buffers at a given time
system.gpu.shader_cores0.lsq.warpInstBufActive::stdev     7.212823                       # Histogram of number of active warp inst buffers at a given time
system.gpu.shader_cores0.lsq.warpInstBufActive::0      5753687     63.43%     63.43% # Histogram of number of active warp inst buffers at a given time
system.gpu.shader_cores0.lsq.warpInstBufActive::1       427922      4.72%     68.15% # Histogram of number of active warp inst buffers at a given time
system.gpu.shader_cores0.lsq.warpInstBufActive::2       373274      4.12%     72.26% # Histogram of number of active warp inst buffers at a given time
system.gpu.shader_cores0.lsq.warpInstBufActive::3       249894      2.75%     75.02% # Histogram of number of active warp inst buffers at a given time
system.gpu.shader_cores0.lsq.warpInstBufActive::4       183347      2.02%     77.04% # Histogram of number of active warp inst buffers at a given time
system.gpu.shader_cores0.lsq.warpInstBufActive::5       167472      1.85%     78.89% # Histogram of number of active warp inst buffers at a given time
system.gpu.shader_cores0.lsq.warpInstBufActive::6       194000      2.14%     81.02% # Histogram of number of active warp inst buffers at a given time
system.gpu.shader_cores0.lsq.warpInstBufActive::7       153456      1.69%     82.72% # Histogram of number of active warp inst buffers at a given time
system.gpu.shader_cores0.lsq.warpInstBufActive::8       219378      2.42%     85.13% # Histogram of number of active warp inst buffers at a given time
system.gpu.shader_cores0.lsq.warpInstBufActive::9       100398      1.11%     86.24% # Histogram of number of active warp inst buffers at a given time
system.gpu.shader_cores0.lsq.warpInstBufActive::10        83034      0.92%     87.16% # Histogram of number of active warp inst buffers at a given time
system.gpu.shader_cores0.lsq.warpInstBufActive::11        44076      0.49%     87.64% # Histogram of number of active warp inst buffers at a given time
system.gpu.shader_cores0.lsq.warpInstBufActive::12        25968      0.29%     87.93% # Histogram of number of active warp inst buffers at a given time
system.gpu.shader_cores0.lsq.warpInstBufActive::13        29523      0.33%     88.25% # Histogram of number of active warp inst buffers at a given time
system.gpu.shader_cores0.lsq.warpInstBufActive::14        33415      0.37%     88.62% # Histogram of number of active warp inst buffers at a given time
system.gpu.shader_cores0.lsq.warpInstBufActive::15       179441      1.98%     90.60% # Histogram of number of active warp inst buffers at a given time
system.gpu.shader_cores0.lsq.warpInstBufActive::16       369062      4.07%     94.67% # Histogram of number of active warp inst buffers at a given time
system.gpu.shader_cores0.lsq.warpInstBufActive::17        24948      0.28%     94.94% # Histogram of number of active warp inst buffers at a given time
system.gpu.shader_cores0.lsq.warpInstBufActive::18        15362      0.17%     95.11% # Histogram of number of active warp inst buffers at a given time
system.gpu.shader_cores0.lsq.warpInstBufActive::19         9463      0.10%     95.22% # Histogram of number of active warp inst buffers at a given time
system.gpu.shader_cores0.lsq.warpInstBufActive::20        19050      0.21%     95.43% # Histogram of number of active warp inst buffers at a given time
system.gpu.shader_cores0.lsq.warpInstBufActive::21        34743      0.38%     95.81% # Histogram of number of active warp inst buffers at a given time
system.gpu.shader_cores0.lsq.warpInstBufActive::22        17764      0.20%     96.01% # Histogram of number of active warp inst buffers at a given time
system.gpu.shader_cores0.lsq.warpInstBufActive::23        18693      0.21%     96.21% # Histogram of number of active warp inst buffers at a given time
system.gpu.shader_cores0.lsq.warpInstBufActive::24        27539      0.30%     96.52% # Histogram of number of active warp inst buffers at a given time
system.gpu.shader_cores0.lsq.warpInstBufActive::25        33169      0.37%     96.88% # Histogram of number of active warp inst buffers at a given time
system.gpu.shader_cores0.lsq.warpInstBufActive::26        33139      0.37%     97.25% # Histogram of number of active warp inst buffers at a given time
system.gpu.shader_cores0.lsq.warpInstBufActive::27        15958      0.18%     97.42% # Histogram of number of active warp inst buffers at a given time
system.gpu.shader_cores0.lsq.warpInstBufActive::28        28366      0.31%     97.74% # Histogram of number of active warp inst buffers at a given time
system.gpu.shader_cores0.lsq.warpInstBufActive::29        40828      0.45%     98.19% # Histogram of number of active warp inst buffers at a given time
system.gpu.shader_cores0.lsq.warpInstBufActive::30        48488      0.53%     98.72% # Histogram of number of active warp inst buffers at a given time
system.gpu.shader_cores0.lsq.warpInstBufActive::31        20102      0.22%     98.94% # Histogram of number of active warp inst buffers at a given time
system.gpu.shader_cores0.lsq.warpInstBufActive::32        15572      0.17%     99.11% # Histogram of number of active warp inst buffers at a given time
system.gpu.shader_cores0.lsq.warpInstBufActive::33         6248      0.07%     99.18% # Histogram of number of active warp inst buffers at a given time
system.gpu.shader_cores0.lsq.warpInstBufActive::34        11292      0.12%     99.31% # Histogram of number of active warp inst buffers at a given time
system.gpu.shader_cores0.lsq.warpInstBufActive::35         7609      0.08%     99.39% # Histogram of number of active warp inst buffers at a given time
system.gpu.shader_cores0.lsq.warpInstBufActive::36         4811      0.05%     99.44% # Histogram of number of active warp inst buffers at a given time
system.gpu.shader_cores0.lsq.warpInstBufActive::37         4276      0.05%     99.49% # Histogram of number of active warp inst buffers at a given time
system.gpu.shader_cores0.lsq.warpInstBufActive::38         6211      0.07%     99.56% # Histogram of number of active warp inst buffers at a given time
system.gpu.shader_cores0.lsq.warpInstBufActive::39         9443      0.10%     99.66% # Histogram of number of active warp inst buffers at a given time
system.gpu.shader_cores0.lsq.warpInstBufActive::40        16212      0.18%     99.84% # Histogram of number of active warp inst buffers at a given time
system.gpu.shader_cores0.lsq.warpInstBufActive::41        14248      0.16%    100.00% # Histogram of number of active warp inst buffers at a given time
system.gpu.shader_cores0.lsq.warpInstBufActive::42            0      0.00%    100.00% # Histogram of number of active warp inst buffers at a given time
system.gpu.shader_cores0.lsq.warpInstBufActive::43            0      0.00%    100.00% # Histogram of number of active warp inst buffers at a given time
system.gpu.shader_cores0.lsq.warpInstBufActive::44            0      0.00%    100.00% # Histogram of number of active warp inst buffers at a given time
system.gpu.shader_cores0.lsq.warpInstBufActive::45            0      0.00%    100.00% # Histogram of number of active warp inst buffers at a given time
system.gpu.shader_cores0.lsq.warpInstBufActive::46            0      0.00%    100.00% # Histogram of number of active warp inst buffers at a given time
system.gpu.shader_cores0.lsq.warpInstBufActive::47            0      0.00%    100.00% # Histogram of number of active warp inst buffers at a given time
system.gpu.shader_cores0.lsq.warpInstBufActive::48            0      0.00%    100.00% # Histogram of number of active warp inst buffers at a given time
system.gpu.shader_cores0.lsq.warpInstBufActive::49            0      0.00%    100.00% # Histogram of number of active warp inst buffers at a given time
system.gpu.shader_cores0.lsq.warpInstBufActive::50            0      0.00%    100.00% # Histogram of number of active warp inst buffers at a given time
system.gpu.shader_cores0.lsq.warpInstBufActive::51            0      0.00%    100.00% # Histogram of number of active warp inst buffers at a given time
system.gpu.shader_cores0.lsq.warpInstBufActive::52            0      0.00%    100.00% # Histogram of number of active warp inst buffers at a given time
system.gpu.shader_cores0.lsq.warpInstBufActive::53            0      0.00%    100.00% # Histogram of number of active warp inst buffers at a given time
system.gpu.shader_cores0.lsq.warpInstBufActive::54            0      0.00%    100.00% # Histogram of number of active warp inst buffers at a given time
system.gpu.shader_cores0.lsq.warpInstBufActive::55            0      0.00%    100.00% # Histogram of number of active warp inst buffers at a given time
system.gpu.shader_cores0.lsq.warpInstBufActive::56            0      0.00%    100.00% # Histogram of number of active warp inst buffers at a given time
system.gpu.shader_cores0.lsq.warpInstBufActive::57            0      0.00%    100.00% # Histogram of number of active warp inst buffers at a given time
system.gpu.shader_cores0.lsq.warpInstBufActive::58            0      0.00%    100.00% # Histogram of number of active warp inst buffers at a given time
system.gpu.shader_cores0.lsq.warpInstBufActive::59            0      0.00%    100.00% # Histogram of number of active warp inst buffers at a given time
system.gpu.shader_cores0.lsq.warpInstBufActive::60            0      0.00%    100.00% # Histogram of number of active warp inst buffers at a given time
system.gpu.shader_cores0.lsq.warpInstBufActive::61            0      0.00%    100.00% # Histogram of number of active warp inst buffers at a given time
system.gpu.shader_cores0.lsq.warpInstBufActive::62            0      0.00%    100.00% # Histogram of number of active warp inst buffers at a given time
system.gpu.shader_cores0.lsq.warpInstBufActive::63            0      0.00%    100.00% # Histogram of number of active warp inst buffers at a given time
system.gpu.shader_cores0.lsq.warpInstBufActive::64            0      0.00%    100.00% # Histogram of number of active warp inst buffers at a given time
system.gpu.shader_cores0.lsq.warpInstBufActive::total      9070881                       # Histogram of number of active warp inst buffers at a given time
system.gpu.shader_cores0.lsq.cacheAccesses     0.001640                       # Average number of concurrent outstanding cache accesses
system.gpu.shader_cores0.lsq.writebackBlockedCycles            0                       # Number of cycles blocked for core writeback stage
system.gpu.shader_cores0.lsq.mshrHitQueued           68                       # Number of hits on blocked lines in MSHRs
system.gpu.shader_cores0.lsq.mshrsFullCycles            0                       # Number of cycles stalled waiting for an MSHR
system.gpu.shader_cores0.lsq.mshrsFullCount            0                       # Number of times MSHRs filled
system.gpu.shader_cores0.lsq.warpCoalescedAccesses::samples          416                       # Number of coalesced accesses per warp instruction
system.gpu.shader_cores0.lsq.warpCoalescedAccesses::mean     1.769231                       # Number of coalesced accesses per warp instruction
system.gpu.shader_cores0.lsq.warpCoalescedAccesses::gmean     1.601517                       # Number of coalesced accesses per warp instruction
system.gpu.shader_cores0.lsq.warpCoalescedAccesses::stdev     0.782098                       # Number of coalesced accesses per warp instruction
system.gpu.shader_cores0.lsq.warpCoalescedAccesses::0            0      0.00%      0.00% # Number of coalesced accesses per warp instruction
system.gpu.shader_cores0.lsq.warpCoalescedAccesses::1          186     44.71%     44.71% # Number of coalesced accesses per warp instruction
system.gpu.shader_cores0.lsq.warpCoalescedAccesses::2          140     33.65%     78.37% # Number of coalesced accesses per warp instruction
system.gpu.shader_cores0.lsq.warpCoalescedAccesses::3           90     21.63%    100.00% # Number of coalesced accesses per warp instruction
system.gpu.shader_cores0.lsq.warpCoalescedAccesses::4            0      0.00%    100.00% # Number of coalesced accesses per warp instruction
system.gpu.shader_cores0.lsq.warpCoalescedAccesses::5            0      0.00%    100.00% # Number of coalesced accesses per warp instruction
system.gpu.shader_cores0.lsq.warpCoalescedAccesses::6            0      0.00%    100.00% # Number of coalesced accesses per warp instruction
system.gpu.shader_cores0.lsq.warpCoalescedAccesses::7            0      0.00%    100.00% # Number of coalesced accesses per warp instruction
system.gpu.shader_cores0.lsq.warpCoalescedAccesses::8            0      0.00%    100.00% # Number of coalesced accesses per warp instruction
system.gpu.shader_cores0.lsq.warpCoalescedAccesses::9            0      0.00%    100.00% # Number of coalesced accesses per warp instruction
system.gpu.shader_cores0.lsq.warpCoalescedAccesses::10            0      0.00%    100.00% # Number of coalesced accesses per warp instruction
system.gpu.shader_cores0.lsq.warpCoalescedAccesses::11            0      0.00%    100.00% # Number of coalesced accesses per warp instruction
system.gpu.shader_cores0.lsq.warpCoalescedAccesses::12            0      0.00%    100.00% # Number of coalesced accesses per warp instruction
system.gpu.shader_cores0.lsq.warpCoalescedAccesses::13            0      0.00%    100.00% # Number of coalesced accesses per warp instruction
system.gpu.shader_cores0.lsq.warpCoalescedAccesses::14            0      0.00%    100.00% # Number of coalesced accesses per warp instruction
system.gpu.shader_cores0.lsq.warpCoalescedAccesses::15            0      0.00%    100.00% # Number of coalesced accesses per warp instruction
system.gpu.shader_cores0.lsq.warpCoalescedAccesses::16            0      0.00%    100.00% # Number of coalesced accesses per warp instruction
system.gpu.shader_cores0.lsq.warpCoalescedAccesses::17            0      0.00%    100.00% # Number of coalesced accesses per warp instruction
system.gpu.shader_cores0.lsq.warpCoalescedAccesses::18            0      0.00%    100.00% # Number of coalesced accesses per warp instruction
system.gpu.shader_cores0.lsq.warpCoalescedAccesses::19            0      0.00%    100.00% # Number of coalesced accesses per warp instruction
system.gpu.shader_cores0.lsq.warpCoalescedAccesses::20            0      0.00%    100.00% # Number of coalesced accesses per warp instruction
system.gpu.shader_cores0.lsq.warpCoalescedAccesses::21            0      0.00%    100.00% # Number of coalesced accesses per warp instruction
system.gpu.shader_cores0.lsq.warpCoalescedAccesses::22            0      0.00%    100.00% # Number of coalesced accesses per warp instruction
system.gpu.shader_cores0.lsq.warpCoalescedAccesses::23            0      0.00%    100.00% # Number of coalesced accesses per warp instruction
system.gpu.shader_cores0.lsq.warpCoalescedAccesses::24            0      0.00%    100.00% # Number of coalesced accesses per warp instruction
system.gpu.shader_cores0.lsq.warpCoalescedAccesses::25            0      0.00%    100.00% # Number of coalesced accesses per warp instruction
system.gpu.shader_cores0.lsq.warpCoalescedAccesses::26            0      0.00%    100.00% # Number of coalesced accesses per warp instruction
system.gpu.shader_cores0.lsq.warpCoalescedAccesses::27            0      0.00%    100.00% # Number of coalesced accesses per warp instruction
system.gpu.shader_cores0.lsq.warpCoalescedAccesses::28            0      0.00%    100.00% # Number of coalesced accesses per warp instruction
system.gpu.shader_cores0.lsq.warpCoalescedAccesses::29            0      0.00%    100.00% # Number of coalesced accesses per warp instruction
system.gpu.shader_cores0.lsq.warpCoalescedAccesses::30            0      0.00%    100.00% # Number of coalesced accesses per warp instruction
system.gpu.shader_cores0.lsq.warpCoalescedAccesses::31            0      0.00%    100.00% # Number of coalesced accesses per warp instruction
system.gpu.shader_cores0.lsq.warpCoalescedAccesses::32            0      0.00%    100.00% # Number of coalesced accesses per warp instruction
system.gpu.shader_cores0.lsq.warpCoalescedAccesses::total          416                       # Number of coalesced accesses per warp instruction
system.gpu.shader_cores0.lsq.warpLatencyRead::samples          288                       # Latency in cycles for whole warp to finish the read
system.gpu.shader_cores0.lsq.warpLatencyRead::mean    68.135417                       # Latency in cycles for whole warp to finish the read
system.gpu.shader_cores0.lsq.warpLatencyRead::gmean    34.592694                       # Latency in cycles for whole warp to finish the read
system.gpu.shader_cores0.lsq.warpLatencyRead::stdev    91.924559                       # Latency in cycles for whole warp to finish the read
system.gpu.shader_cores0.lsq.warpLatencyRead::0-31          155     53.82%     53.82% # Latency in cycles for whole warp to finish the read
system.gpu.shader_cores0.lsq.warpLatencyRead::32-63           42     14.58%     68.40% # Latency in cycles for whole warp to finish the read
system.gpu.shader_cores0.lsq.warpLatencyRead::64-95           34     11.81%     80.21% # Latency in cycles for whole warp to finish the read
system.gpu.shader_cores0.lsq.warpLatencyRead::96-127           13      4.51%     84.72% # Latency in cycles for whole warp to finish the read
system.gpu.shader_cores0.lsq.warpLatencyRead::128-159           10      3.47%     88.19% # Latency in cycles for whole warp to finish the read
system.gpu.shader_cores0.lsq.warpLatencyRead::160-191            3      1.04%     89.24% # Latency in cycles for whole warp to finish the read
system.gpu.shader_cores0.lsq.warpLatencyRead::192-223            8      2.78%     92.01% # Latency in cycles for whole warp to finish the read
system.gpu.shader_cores0.lsq.warpLatencyRead::224-255            2      0.69%     92.71% # Latency in cycles for whole warp to finish the read
system.gpu.shader_cores0.lsq.warpLatencyRead::256-287            1      0.35%     93.06% # Latency in cycles for whole warp to finish the read
system.gpu.shader_cores0.lsq.warpLatencyRead::288-319            2      0.69%     93.75% # Latency in cycles for whole warp to finish the read
system.gpu.shader_cores0.lsq.warpLatencyRead::320-351            6      2.08%     95.83% # Latency in cycles for whole warp to finish the read
system.gpu.shader_cores0.lsq.warpLatencyRead::352-383           12      4.17%    100.00% # Latency in cycles for whole warp to finish the read
system.gpu.shader_cores0.lsq.warpLatencyRead::384-415            0      0.00%    100.00% # Latency in cycles for whole warp to finish the read
system.gpu.shader_cores0.lsq.warpLatencyRead::416-447            0      0.00%    100.00% # Latency in cycles for whole warp to finish the read
[...]
system.ruby.L1Cache_Controller.Fwd_GETX  |          20     10.20%     10.20% |          38     19.39%     29.59% |          51     26.02%     55.61% |          40     20.41%     76.02% |          47     23.98%    100.00% |           0      0.00%    100.00% |           0      0.00%    100.00%
system.ruby.L1Cache_Controller.Fwd_GETX::total          196                      
system.ruby.L1Cache_Controller.Fwd_GETS  |         187     45.95%     45.95% |          49     12.04%     57.99% |          47     11.55%     69.53% |          44     10.81%     80.34% |          55     13.51%     93.86% |           0      0.00%     93.86% |          25      6.14%    100.00%
system.ruby.L1Cache_Controller.Fwd_GETS::total          407                      
system.ruby.L1Cache_Controller.Data      |           4      3.96%      3.96% |           0      0.00%      3.96% |           0      0.00%      3.96% |           0      0.00%      3.96% |           0      0.00%      3.96% |           0      0.00%      3.96% |          97     96.04%    100.00%
system.ruby.L1Cache_Controller.Data::total          101                      
system.ruby.L1Cache_Controller.Data_Exclusive |         633     53.92%     53.92% |          94      8.01%     61.93% |         103      8.77%     70.70% |         104      8.86%     79.56% |         104      8.86%     88.42% |           0      0.00%     88.42% |         136     11.58%    100.00%
system.ruby.L1Cache_Controller.Data_Exclusive::total         1174                      
system.ruby.L1Cache_Controller.DataS_fromL1 |          12      2.95%      2.95% |          18      4.42%      7.37% |          21      5.16%     12.53% |           7      1.72%     14.25% |          17      4.18%     18.43% |           0      0.00%     18.43% |         332     81.57%    100.00%
system.ruby.L1Cache_Controller.DataS_fromL1::total          407                      
system.ruby.L1Cache_Controller.Data_all_Acks |        6357     90.22%     90.22% |          17      0.24%     90.46% |          30      0.43%     90.89% |          20      0.28%     91.17% |          34      0.48%     91.65% |           0      0.00%     91.65% |         588      8.35%    100.00%
system.ruby.L1Cache_Controller.Data_all_Acks::total         7046                      
system.ruby.L1Cache_Controller.Ack       |          18     23.38%     23.38% |          22     28.57%     51.95% |          12     15.58%     67.53% |           9     11.69%     79.22% |          11     14.29%     93.51% |           0      0.00%     93.51% |           5      6.49%    100.00%
system.ruby.L1Cache_Controller.Ack::total           77                      
system.ruby.L1Cache_Controller.Ack_all   |          13      7.93%      7.93% |          22     13.41%     21.34% |          12      7.32%     28.66% |           9      5.49%     34.15% |          11      6.71%     40.85% |           0      0.00%     40.85% |          97     59.15%    100.00%
system.ruby.L1Cache_Controller.Ack_all::total          164                      
system.ruby.L1Cache_Controller.WB_Ack    |         822     54.73%     54.73% |           0      0.00%     54.73% |           0      0.00%     54.73% |           0      0.00%     54.73% |           0      0.00%     54.73% |           0      0.00%     54.73% |         680     45.27%    100.00%
system.ruby.L1Cache_Controller.WB_Ack::total         1502                      
system.ruby.L1Cache_Controller.NP.Load   |         624     41.03%     41.03% |          77      5.06%     46.09% |          83      5.46%     51.55% |          77      5.06%     56.61% |          83      5.46%     62.06% |           0      0.00%     62.06% |         577     37.94%    100.00%
system.ruby.L1Cache_Controller.NP.Load::total         1521                      
system.ruby.L1Cache_Controller.NP.Ifetch |        5530     99.12%     99.12% |          12      0.22%     99.34% |          13      0.23%     99.57% |          12      0.22%     99.78% |          12      0.22%    100.00% |           0      0.00%    100.00% |           0      0.00%    100.00%
system.ruby.L1Cache_Controller.NP.Ifetch::total         5579                      
system.ruby.L1Cache_Controller.NP.Store  |         824     58.36%     58.36% |           2      0.14%     58.50% |           4      0.28%     58.78% |           2      0.14%     58.92% |           4      0.28%     59.21% |           0      0.00%     59.21% |         576     40.79%    100.00%
system.ruby.L1Cache_Controller.NP.Store::total         1412                      
system.ruby.L1Cache_Controller.NP.Inv    |          14     60.87%     60.87% |           0      0.00%     60.87% |           0      0.00%     60.87% |           0      0.00%     60.87% |           0      0.00%     60.87% |           0      0.00%     60.87% |           9     39.13%    100.00%
system.ruby.L1Cache_Controller.NP.Inv::total           23                      
system.ruby.L1Cache_Controller.I.Load    |          24     13.56%     13.56% |          36     20.34%     33.90% |          41     23.16%     57.06% |          37     20.90%     77.97% |          39     22.03%    100.00% |           0      0.00%    100.00% |           0      0.00%    100.00%
system.ruby.L1Cache_Controller.I.Load::total          177                      
system.ruby.L1Cache_Controller.I.Store   |           4     10.26%     10.26% |           2      5.13%     15.38% |          13     33.33%     48.72% |           3      7.69%     56.41% |          17     43.59%    100.00% |           0      0.00%    100.00% |           0      0.00%    100.00%
system.ruby.L1Cache_Controller.I.Store::total           39                      
system.ruby.L1Cache_Controller.I.L1_Replacement |          14     46.67%     46.67% |           0      0.00%     46.67% |           0      0.00%     46.67% |           0      0.00%     46.67% |           0      0.00%     46.67% |           0      0.00%     46.67% |          16     53.33%    100.00%
system.ruby.L1Cache_Controller.I.L1_Replacement::total           30                      
system.ruby.L1Cache_Controller.S.Load    |         545     48.14%     48.14% |         126     11.13%     59.28% |         160     14.13%     73.41% |         141     12.46%     85.87% |         160     14.13%    100.00% |           0      0.00%    100.00% |           0      0.00%    100.00%
system.ruby.L1Cache_Controller.S.Load::total         1132                      
system.ruby.L1Cache_Controller.S.Ifetch  |     6659581    100.00%    100.00% |           0      0.00%    100.00% |           0      0.00%    100.00% |           0      0.00%    100.00% |           0      0.00%    100.00% |           0      0.00%    100.00% |           0      0.00%    100.00%
system.ruby.L1Cache_Controller.S.Ifetch::total      6659581                      
system.ruby.L1Cache_Controller.S.Store   |           9     14.29%     14.29% |          22     34.92%     49.21% |          12     19.05%     68.25% |           9     14.29%     82.54% |          11     17.46%    100.00% |           0      0.00%    100.00% |           0      0.00%    100.00%
system.ruby.L1Cache_Controller.S.Store::total           63                      
system.ruby.L1Cache_Controller.S.Inv     |          88     56.77%     56.77% |           8      5.16%     61.94% |          17     10.97%     72.90% |           5      3.23%     76.13% |          20     12.90%     89.03% |           0      0.00%     89.03% |          17     10.97%    100.00%
system.ruby.L1Cache_Controller.S.Inv::total          155                      
system.ruby.L1Cache_Controller.S.L1_Replacement |        5381     92.30%     92.30% |           0      0.00%     92.30% |           0      0.00%     92.30% |           0      0.00%     92.30% |           0      0.00%     92.30% |           0      0.00%     92.30% |         449      7.70%    100.00%
system.ruby.L1Cache_Controller.S.L1_Replacement::total         5830                      
system.ruby.L1Cache_Controller.E.Load    |      135294     99.58%     99.58% |         183      0.13%     99.71% |         124      0.09%     99.80% |         148      0.11%     99.91% |         122      0.09%    100.00% |           0      0.00%    100.00% |           0      0.00%    100.00%
system.ruby.L1Cache_Controller.E.Load::total       135871                      
system.ruby.L1Cache_Controller.E.Store   |         309     46.05%     46.05% |          84     12.52%     58.57% |          92     13.71%     72.28% |          96     14.31%     86.59% |          90     13.41%    100.00% |           0      0.00%    100.00% |           0      0.00%    100.00%
system.ruby.L1Cache_Controller.E.Store::total          671                      
system.ruby.L1Cache_Controller.E.L1_Replacement |         237     63.54%     63.54% |           0      0.00%     63.54% |           0      0.00%     63.54% |           0      0.00%     63.54% |           0      0.00%     63.54% |           0      0.00%     63.54% |         136     36.46%    100.00%
system.ruby.L1Cache_Controller.E.L1_Replacement::total          373                      
system.ruby.L1Cache_Controller.E.Fwd_GETX |          12    100.00%    100.00% |           0      0.00%    100.00% |           0      0.00%    100.00% |           0      0.00%    100.00% |           0      0.00%    100.00% |           0      0.00%    100.00% |           0      0.00%    100.00%
system.ruby.L1Cache_Controller.E.Fwd_GETX::total           12                      
system.ruby.L1Cache_Controller.E.Fwd_GETS |           3      6.52%      6.52% |          10     21.74%     28.26% |          11     23.91%     52.17% |           8     17.39%     69.57% |          14     30.43%    100.00% |           0      0.00%    100.00% |           0      0.00%    100.00%
system.ruby.L1Cache_Controller.E.Fwd_GETS::total           46                      
system.ruby.L1Cache_Controller.M.Load    |     1103973     99.99%     99.99% |           0      0.00%     99.99% |          19      0.00%    100.00% |          19      0.00%    100.00% |          18      0.00%    100.00% |           0      0.00%    100.00% |           0      0.00%    100.00%
system.ruby.L1Cache_Controller.M.Load::total      1104029                      
system.ruby.L1Cache_Controller.M.Store   |      844403     99.91%     99.91% |         204      0.02%     99.93% |         195      0.02%     99.95% |         204      0.02%     99.98% |         192      0.02%    100.00% |           0      0.00%    100.00% |           0      0.00%    100.00%
system.ruby.L1Cache_Controller.M.Store::total       845198                      
system.ruby.L1Cache_Controller.M.L1_Replacement |         585     51.82%     51.82% |           0      0.00%     51.82% |           0      0.00%     51.82% |           0      0.00%     51.82% |           0      0.00%     51.82% |           0      0.00%     51.82% |         544     48.18%    100.00%
system.ruby.L1Cache_Controller.M.L1_Replacement::total         1129                      
system.ruby.L1Cache_Controller.M.Fwd_GETX |           8      4.35%      4.35% |          38     20.65%     25.00% |          51     27.72%     52.72% |          40     21.74%     74.46% |          47     25.54%    100.00% |           0      0.00%    100.00% |           0      0.00%    100.00%
system.ruby.L1Cache_Controller.M.Fwd_GETX::total          184                      
system.ruby.L1Cache_Controller.M.Fwd_GETS |         184     50.97%     50.97% |          39     10.80%     61.77% |          36      9.97%     71.75% |          36      9.97%     81.72% |          41     11.36%     93.07% |           0      0.00%     93.07% |          25      6.93%    100.00%
system.ruby.L1Cache_Controller.M.Fwd_GETS::total          361                      
system.ruby.L1Cache_Controller.IS.L1_Replacement |           0      0.00%      0.00% |           0      0.00%      0.00% |           0      0.00%      0.00% |           0      0.00%      0.00% |           0      0.00%      0.00% |           0      0.00%      0.00% |        5937    100.00%    100.00%
system.ruby.L1Cache_Controller.IS.L1_Replacement::total         5937                      
system.ruby.L1Cache_Controller.IS.Data_Exclusive |         633     53.92%     53.92% |          94      8.01%     61.93% |         103      8.77%     70.70% |         104      8.86%     79.56% |         104      8.86%     88.42% |           0      0.00%     88.42% |         136     11.58%    100.00%
system.ruby.L1Cache_Controller.IS.Data_Exclusive::total         1174                      
system.ruby.L1Cache_Controller.IS.DataS_fromL1 |          12      2.95%      2.95% |          18      4.42%      7.37% |          21      5.16%     12.53% |           7      1.72%     14.25% |          17      4.18%     18.43% |           0      0.00%     18.43% |         332     81.57%    100.00%
system.ruby.L1Cache_Controller.IS.DataS_fromL1::total          407                      
system.ruby.L1Cache_Controller.IS.Data_all_Acks |        5533     97.14%     97.14% |          13      0.23%     97.37% |          13      0.23%     97.59% |          15      0.26%     97.86% |          13      0.23%     98.09% |           0      0.00%     98.09% |         109      1.91%    100.00%
system.ruby.L1Cache_Controller.IS.Data_all_Acks::total         5696                      
system.ruby.L1Cache_Controller.IM.L1_Replacement |           0      0.00%      0.00% |           0      0.00%      0.00% |           0      0.00%      0.00% |           0      0.00%      0.00% |           0      0.00%      0.00% |           0      0.00%      0.00% |        5410    100.00%    100.00%
system.ruby.L1Cache_Controller.IM.L1_Replacement::total         5410                      
system.ruby.L1Cache_Controller.IM.Data   |           4      3.96%      3.96% |           0      0.00%      3.96% |           0      0.00%      3.96% |           0      0.00%      3.96% |           0      0.00%      3.96% |           0      0.00%      3.96% |          97     96.04%    100.00%
system.ruby.L1Cache_Controller.IM.Data::total          101                      
system.ruby.L1Cache_Controller.IM.Data_all_Acks |         824     61.04%     61.04% |           4      0.30%     61.33% |          17      1.26%     62.59% |           5      0.37%     62.96% |          21      1.56%     64.52% |           0      0.00%     64.52% |         479     35.48%    100.00%
system.ruby.L1Cache_Controller.IM.Data_all_Acks::total         1350                      
system.ruby.L1Cache_Controller.IM.Ack    |           0      0.00%      0.00% |           0      0.00%      0.00% |           0      0.00%      0.00% |           0      0.00%      0.00% |           0      0.00%      0.00% |           0      0.00%      0.00% |           5    100.00%    100.00%
system.ruby.L1Cache_Controller.IM.Ack::total            5                      
system.ruby.L1Cache_Controller.SM.L1_Replacement |           0      0.00%      0.00% |           0      0.00%      0.00% |           0      0.00%      0.00% |           0      0.00%      0.00% |           0      0.00%      0.00% |           0      0.00%      0.00% |         107    100.00%    100.00%
system.ruby.L1Cache_Controller.SM.L1_Replacement::total          107                      
system.ruby.L1Cache_Controller.SM.Ack    |          18     25.00%     25.00% |          22     30.56%     55.56% |          12     16.67%     72.22% |           9     12.50%     84.72% |          11     15.28%    100.00% |           0      0.00%    100.00% |           0      0.00%    100.00%
system.ruby.L1Cache_Controller.SM.Ack::total           72                      
system.ruby.L1Cache_Controller.SM.Ack_all |          13      7.93%      7.93% |          22     13.41%     21.34% |          12      7.32%     28.66% |           9      5.49%     34.15% |          11      6.71%     40.85% |           0      0.00%     40.85% |          97     59.15%    100.00%
system.ruby.L1Cache_Controller.SM.Ack_all::total          164                      
system.ruby.L1Cache_Controller.M_I.Ifetch |           2    100.00%    100.00% |           0      0.00%    100.00% |           0      0.00%    100.00% |           0      0.00%    100.00% |           0      0.00%    100.00% |           0      0.00%    100.00% |           0      0.00%    100.00%
system.ruby.L1Cache_Controller.M_I.Ifetch::total            2                      
system.ruby.L1Cache_Controller.M_I.WB_Ack |         822     54.73%     54.73% |           0      0.00%     54.73% |           0      0.00%     54.73% |           0      0.00%     54.73% |           0      0.00%     54.73% |           0      0.00%     54.73% |         680     45.27%    100.00%
system.ruby.L1Cache_Controller.M_I.WB_Ack::total         1502                      
system.ruby.L2Cache_Controller.L1_GET_INSTR         5579      0.00%      0.00%
system.ruby.L2Cache_Controller.L1_GETS           1709      0.00%      0.00%
system.ruby.L2Cache_Controller.L1_GETX           1451      0.00%      0.00%
system.ruby.L2Cache_Controller.L1_UPGRADE           63      0.00%      0.00%
system.ruby.L2Cache_Controller.L1_PUTX           1502      0.00%      0.00%
system.ruby.L2Cache_Controller.Mem_Data          1676      0.00%      0.00%
system.ruby.L2Cache_Controller.WB_Data            361      0.00%      0.00%
system.ruby.L2Cache_Controller.WB_Data_clean           46      0.00%      0.00%
system.ruby.L2Cache_Controller.Unblock            407      0.00%      0.00%
system.ruby.L2Cache_Controller.Exclusive_Unblock         2688      0.00%      0.00%
system.ruby.L2Cache_Controller.NP.L1_GET_INSTR          472      0.00%      0.00%
system.ruby.L2Cache_Controller.NP.L1_GETS          121      0.00%      0.00%
system.ruby.L2Cache_Controller.NP.L1_GETX         1083      0.00%      0.00%
system.ruby.L2Cache_Controller.SS.L1_GET_INSTR         5087      0.00%      0.00%
system.ruby.L2Cache_Controller.SS.L1_GETS          117      0.00%      0.00%
system.ruby.L2Cache_Controller.SS.L1_GETX          106      0.00%      0.00%
system.ruby.L2Cache_Controller.SS.L1_UPGRADE           63      0.00%      0.00%
system.ruby.L2Cache_Controller.M.L1_GET_INSTR            3      0.00%      0.00%
system.ruby.L2Cache_Controller.M.L1_GETS         1053      0.00%      0.00%
system.ruby.L2Cache_Controller.M.L1_GETX           66      0.00%      0.00%
system.ruby.L2Cache_Controller.MT.L1_GETS          407      0.00%      0.00%
system.ruby.L2Cache_Controller.MT.L1_GETX          196      0.00%      0.00%
system.ruby.L2Cache_Controller.MT.L1_PUTX         1502      0.00%      0.00%
system.ruby.L2Cache_Controller.ISS.Mem_Data          121      0.00%      0.00%
system.ruby.L2Cache_Controller.IS.L1_GET_INSTR           17      0.00%      0.00%
system.ruby.L2Cache_Controller.IS.Mem_Data          472      0.00%      0.00%
system.ruby.L2Cache_Controller.IM.Mem_Data         1083      0.00%      0.00%
system.ruby.L2Cache_Controller.SS_MB.Exclusive_Unblock          169      0.00%      0.00%
system.ruby.L2Cache_Controller.MT_MB.L1_GETS            9      0.00%      0.00%
system.ruby.L2Cache_Controller.MT_MB.Exclusive_Unblock         2519      0.00%      0.00%
system.ruby.L2Cache_Controller.MT_IIB.L1_GETS            2      0.00%      0.00%
system.ruby.L2Cache_Controller.MT_IIB.WB_Data           80      0.00%      0.00%
system.ruby.L2Cache_Controller.MT_IIB.WB_Data_clean            4      0.00%      0.00%
system.ruby.L2Cache_Controller.MT_IIB.Unblock          323      0.00%      0.00%
system.ruby.L2Cache_Controller.MT_IB.WB_Data          281      0.00%      0.00%
system.ruby.L2Cache_Controller.MT_IB.WB_Data_clean           42      0.00%      0.00%
system.ruby.L2Cache_Controller.MT_SB.Unblock           84      0.00%      0.00%
system.ruby.Directory_Controller.Fetch           1676      0.00%      0.00%
system.ruby.Directory_Controller.Memory_Data         1676      0.00%      0.00%
system.ruby.Directory_Controller.I.Fetch         1676      0.00%      0.00%
system.ruby.Directory_Controller.IM.Memory_Data         1676      0.00%      0.00%

---------- End Simulation Statistics   ----------
