
---------- Begin Simulation Statistics ----------
sim_seconds                                  0.003932                       # Number of seconds simulated
sim_ticks                                  3932102500                       # Number of ticks simulated
final_tick                                 3932102500                       # Number of ticks from beginning of simulation (restored from checkpoints and never reset)
sim_freq                                 1000000000000                       # Frequency of simulated ticks
host_inst_rate                                  17881                       # Simulator instruction rate (inst/s)
host_op_rate                                    29421                       # Simulator op (including micro ops) rate (op/s)
host_tick_rate                               42473874                       # Simulator tick rate (ticks/s)
host_mem_usage                                4552840                       # Number of bytes of host memory used
host_seconds                                    92.58                       # Real time elapsed on the host
sim_insts                                     1655400                       # Number of instructions simulated
sim_ops                                       2723752                       # Number of ops (including micro ops) simulated
system.voltage_domain.voltage                       1                       # Voltage in Volts
system.clk_domain.clock                          1000                       # Clock period in ticks
system.mem_ctrls.clk_domain.clock                2500                       # Clock period in ticks
system.mem_ctrls.bytes_read::ruby.dir_cntrl0       412416                       # Number of bytes read from this memory
system.mem_ctrls.bytes_read::total             412416                       # Number of bytes read from this memory
system.mem_ctrls.bytes_written::ruby.dir_cntrl0       100992                       # Number of bytes written to this memory
system.mem_ctrls.bytes_written::total          100992                       # Number of bytes written to this memory
system.mem_ctrls.num_reads::ruby.dir_cntrl0         3222                       # Number of read requests responded to by this memory
system.mem_ctrls.num_reads::total                3222                       # Number of read requests responded to by this memory
system.mem_ctrls.num_writes::ruby.dir_cntrl0          789                       # Number of write requests responded to by this memory
system.mem_ctrls.num_writes::total                789                       # Number of write requests responded to by this memory
system.mem_ctrls.bw_read::ruby.dir_cntrl0    104884346                       # Total read bandwidth from this memory (bytes/s)
system.mem_ctrls.bw_read::total             104884346                       # Total read bandwidth from this memory (bytes/s)
system.mem_ctrls.bw_write::ruby.dir_cntrl0     25683969                       # Write bandwidth from this memory (bytes/s)
system.mem_ctrls.bw_write::total             25683969                       # Write bandwidth from this memory (bytes/s)
system.mem_ctrls.bw_total::ruby.dir_cntrl0    130568316                       # Total bandwidth to/from this memory (bytes/s)
system.mem_ctrls.bw_total::total            130568316                       # Total bandwidth to/from this memory (bytes/s)
system.mem_ctrls.memReq                          4011                       # Total number of memory requests
system.mem_ctrls.memRead                         3222                       # Number of memory reads
system.mem_ctrls.memWrite                         789                       # Number of memory writes
system.mem_ctrls.memRefresh                     11076                       # Number of memory refreshes
system.mem_ctrls.memWaitCycles                  53719                       # Delay stalled at the head of the bank queue
system.mem_ctrls.memInputQ                      24332                       # Delay in the input queue
system.mem_ctrls.memBankQ                      201849                       # Delay behind the head of the bank queue
system.mem_ctrls.totalStalls                   279900                       # Total number of stall cycles
system.mem_ctrls.stallsPerReq               69.783096                       # Expected number of stall cycles per request
system.mem_ctrls.memBankBusy                    11582                       # memory stalls due to busy bank
system.mem_ctrls.memBusBusy                     14729                       # memory stalls due to busy bus
system.mem_ctrls.memReadWriteBusy                1086                       # memory stalls due to read write turnaround
system.mem_ctrls.memDataBusBusy                  4224                       # memory stalls due to read read turnaround
system.mem_ctrls.memArbWait                      9652                       # memory stalls due to arbitration
system.mem_ctrls.memNotOld                      12446                       # memory stalls due to anti starvation
system.mem_ctrls.memBankCount            |         127      3.17%      3.17% |         116      2.89%      6.06% |         133      3.32%      9.37% |         142      3.54%     12.91% |         137      3.42%     16.33% |         139      3.47%     19.80% |         134      3.34%     23.14% |         129      3.22%     26.35% |         127      3.17%     29.52% |         126      3.14%     32.66% |         128      3.19%     35.85% |         139      3.47%     39.32% |         132      3.29%     42.61% |         136      3.39%     46.00% |         148      3.69%     49.69% |         161      4.01%     53.70% |         155      3.86%     57.57% |         129      3.22%     60.78% |         115      2.87%     63.65% |         113      2.82%     66.47% |         116      2.89%     69.36% |         117      2.92%     72.28% |         110      2.74%     75.02% |         105      2.62%     77.64% |         108      2.69%     80.33% |         111      2.77%     83.10% |         112      2.79%     85.89% |         114      2.84%     88.73% |         110      2.74%     91.47% |         114      2.84%     94.32% |         111      2.77%     97.08% |         117      2.92%    100.00% # Number of accesses per bank
system.mem_ctrls.memBankCount::total             4011                       # Number of accesses per bank
system.ruby_clk_domain.clock                      500                       # Clock period in ticks
system.ruby.phys_mem.bytes_read::writebacks        47552                       # Number of bytes read from this memory
system.ruby.phys_mem.bytes_read::cpu.inst     18887608                       # Number of bytes read from this memory
system.ruby.phys_mem.bytes_read::cpu.data      2308588                       # Number of bytes read from this memory
system.ruby.phys_mem.bytes_read::gpu.ce         53252                       # Number of bytes read from this memory
system.ruby.phys_mem.bytes_read::gpu.shader_cores0.data      2070432                       # Number of bytes read from this memory
system.ruby.phys_mem.bytes_read::gpu.shader_cores0.inst         1200                       # Number of bytes read from this memory
system.ruby.phys_mem.bytes_read::gpu.shader_cores1.data      1668544                       # Number of bytes read from this memory
system.ruby.phys_mem.bytes_read::gpu.shader_cores1.inst         1392                       # Number of bytes read from this memory
system.ruby.phys_mem.bytes_read::gpu.shader_cores2.data      1625152                       # Number of bytes read from this memory
system.ruby.phys_mem.bytes_read::gpu.shader_cores2.inst         1648                       # Number of bytes read from this memory
system.ruby.phys_mem.bytes_read::gpu.shader_cores3.data      2088928                       # Number of bytes read from this memory
system.ruby.phys_mem.bytes_read::gpu.shader_cores3.inst         1672                       # Number of bytes read from this memory
system.ruby.phys_mem.bytes_read::total       28755968                       # Number of bytes read from this memory
system.ruby.phys_mem.bytes_inst_read::cpu.inst     18887608                       # Number of instructions bytes read from this memory
system.ruby.phys_mem.bytes_inst_read::gpu.shader_cores0.inst         1200                       # Number of instructions bytes read from this memory
system.ruby.phys_mem.bytes_inst_read::gpu.shader_cores1.inst         1392                       # Number of instructions bytes read from this memory
system.ruby.phys_mem.bytes_inst_read::gpu.shader_cores2.inst         1648                       # Number of instructions bytes read from this memory
system.ruby.phys_mem.bytes_inst_read::gpu.shader_cores3.inst         1672                       # Number of instructions bytes read from this memory
system.ruby.phys_mem.bytes_inst_read::total     18893520                       # Number of instructions bytes read from this memory
system.ruby.phys_mem.bytes_written::writebacks        47552                       # Number of bytes written to this memory
system.ruby.phys_mem.bytes_written::cpu.data      1152841                       # Number of bytes written to this memory
system.ruby.phys_mem.bytes_written::gpu.ce        53252                       # Number of bytes written to this memory
system.ruby.phys_mem.bytes_written::gpu.shader_cores0.data        34360                       # Number of bytes written to this memory
system.ruby.phys_mem.bytes_written::gpu.shader_cores1.data        34160                       # Number of bytes written to this memory
system.ruby.phys_mem.bytes_written::gpu.shader_cores2.data        64152                       # Number of bytes written to this memory
system.ruby.phys_mem.bytes_written::gpu.shader_cores3.data        37048                       # Number of bytes written to this memory
system.ruby.phys_mem.bytes_written::total      1423365                       # Number of bytes written to this memory
system.ruby.phys_mem.num_reads::writebacks        11888                       # Number of read requests responded to by this memory
system.ruby.phys_mem.num_reads::cpu.inst      2360951                       # Number of read requests responded to by this memory
system.ruby.phys_mem.num_reads::cpu.data       312528                       # Number of read requests responded to by this memory
system.ruby.phys_mem.num_reads::gpu.ce            424                       # Number of read requests responded to by this memory
system.ruby.phys_mem.num_reads::gpu.shader_cores0.data        61179                       # Number of read requests responded to by this memory
system.ruby.phys_mem.num_reads::gpu.shader_cores0.inst           50                       # Number of read requests responded to by this memory
system.ruby.phys_mem.num_reads::gpu.shader_cores1.data        48817                       # Number of read requests responded to by this memory
system.ruby.phys_mem.num_reads::gpu.shader_cores1.inst           58                       # Number of read requests responded to by this memory
system.ruby.phys_mem.num_reads::gpu.shader_cores2.data        45937                       # Number of read requests responded to by this memory
system.ruby.phys_mem.num_reads::gpu.shader_cores2.inst           69                       # Number of read requests responded to by this memory
system.ruby.phys_mem.num_reads::gpu.shader_cores3.data        60506                       # Number of read requests responded to by this memory
system.ruby.phys_mem.num_reads::gpu.shader_cores3.inst           70                       # Number of read requests responded to by this memory
system.ruby.phys_mem.num_reads::total         2902477                       # Number of read requests responded to by this memory
system.ruby.phys_mem.num_writes::writebacks        11888                       # Number of write requests responded to by this memory
system.ruby.phys_mem.num_writes::cpu.data       165456                       # Number of write requests responded to by this memory
system.ruby.phys_mem.num_writes::gpu.ce           423                       # Number of write requests responded to by this memory
system.ruby.phys_mem.num_writes::gpu.shader_cores0.data         2299                       # Number of write requests responded to by this memory
system.ruby.phys_mem.num_writes::gpu.shader_cores1.data         2424                       # Number of write requests responded to by this memory
system.ruby.phys_mem.num_writes::gpu.shader_cores2.data         2694                       # Number of write requests responded to by this memory
system.ruby.phys_mem.num_writes::gpu.shader_cores3.data         2917                       # Number of write requests responded to by this memory
system.ruby.phys_mem.num_writes::total         188101                       # Number of write requests responded to by this memory
system.ruby.phys_mem.bw_read::writebacks     12093276                       # Total read bandwidth from this memory (bytes/s)
system.ruby.phys_mem.bw_read::cpu.inst     4803437347                       # Total read bandwidth from this memory (bytes/s)
system.ruby.phys_mem.bw_read::cpu.data      587112874                       # Total read bandwidth from this memory (bytes/s)
system.ruby.phys_mem.bw_read::gpu.ce         13542882                       # Total read bandwidth from this memory (bytes/s)
system.ruby.phys_mem.bw_read::gpu.shader_cores0.data    526545786                       # Total read bandwidth from this memory (bytes/s)
system.ruby.phys_mem.bw_read::gpu.shader_cores0.inst       305180                       # Total read bandwidth from this memory (bytes/s)
system.ruby.phys_mem.bw_read::gpu.shader_cores1.data    424338887                       # Total read bandwidth from this memory (bytes/s)
system.ruby.phys_mem.bw_read::gpu.shader_cores1.inst       354009                       # Total read bandwidth from this memory (bytes/s)
system.ruby.phys_mem.bw_read::gpu.shader_cores2.data    413303570                       # Total read bandwidth from this memory (bytes/s)
system.ruby.phys_mem.bw_read::gpu.shader_cores2.inst       419114                       # Total read bandwidth from this memory (bytes/s)
system.ruby.phys_mem.bw_read::gpu.shader_cores3.data    531249630                       # Total read bandwidth from this memory (bytes/s)
system.ruby.phys_mem.bw_read::gpu.shader_cores3.inst       425218                       # Total read bandwidth from this memory (bytes/s)
system.ruby.phys_mem.bw_read::total        7313127773                       # Total read bandwidth from this memory (bytes/s)
system.ruby.phys_mem.bw_inst_read::cpu.inst   4803437347                       # Instruction read bandwidth from this memory (bytes/s)
system.ruby.phys_mem.bw_inst_read::gpu.shader_cores0.inst       305180                       # Instruction read bandwidth from this memory (bytes/s)
system.ruby.phys_mem.bw_inst_read::gpu.shader_cores1.inst       354009                       # Instruction read bandwidth from this memory (bytes/s)
system.ruby.phys_mem.bw_inst_read::gpu.shader_cores2.inst       419114                       # Instruction read bandwidth from this memory (bytes/s)
system.ruby.phys_mem.bw_inst_read::gpu.shader_cores3.inst       425218                       # Instruction read bandwidth from this memory (bytes/s)
system.ruby.phys_mem.bw_inst_read::total   4804940868                       # Instruction read bandwidth from this memory (bytes/s)
system.ruby.phys_mem.bw_write::writebacks     12093276                       # Write bandwidth from this memory (bytes/s)
system.ruby.phys_mem.bw_write::cpu.data     293186915                       # Write bandwidth from this memory (bytes/s)
system.ruby.phys_mem.bw_write::gpu.ce        13542882                       # Write bandwidth from this memory (bytes/s)
system.ruby.phys_mem.bw_write::gpu.shader_cores0.data      8738328                       # Write bandwidth from this memory (bytes/s)
system.ruby.phys_mem.bw_write::gpu.shader_cores1.data      8687464                       # Write bandwidth from this memory (bytes/s)
system.ruby.phys_mem.bw_write::gpu.shader_cores2.data     16314936                       # Write bandwidth from this memory (bytes/s)
system.ruby.phys_mem.bw_write::gpu.shader_cores3.data      9421931                       # Write bandwidth from this memory (bytes/s)
system.ruby.phys_mem.bw_write::total        361985732                       # Write bandwidth from this memory (bytes/s)
system.ruby.phys_mem.bw_total::writebacks     24186552                       # Total bandwidth to/from this memory (bytes/s)
system.ruby.phys_mem.bw_total::cpu.inst    4803437347                       # Total bandwidth to/from this memory (bytes/s)
system.ruby.phys_mem.bw_total::cpu.data     880299789                       # Total bandwidth to/from this memory (bytes/s)
system.ruby.phys_mem.bw_total::gpu.ce        27085764                       # Total bandwidth to/from this memory (bytes/s)
system.ruby.phys_mem.bw_total::gpu.shader_cores0.data    535284113                       # Total bandwidth to/from this memory (bytes/s)
system.ruby.phys_mem.bw_total::gpu.shader_cores0.inst       305180                       # Total bandwidth to/from this memory (bytes/s)
system.ruby.phys_mem.bw_total::gpu.shader_cores1.data    433026352                       # Total bandwidth to/from this memory (bytes/s)
system.ruby.phys_mem.bw_total::gpu.shader_cores1.inst       354009                       # Total bandwidth to/from this memory (bytes/s)
system.ruby.phys_mem.bw_total::gpu.shader_cores2.data    429618506                       # Total bandwidth to/from this memory (bytes/s)
system.ruby.phys_mem.bw_total::gpu.shader_cores2.inst       419114                       # Total bandwidth to/from this memory (bytes/s)
system.ruby.phys_mem.bw_total::gpu.shader_cores3.data    540671562                       # Total bandwidth to/from this memory (bytes/s)
system.ruby.phys_mem.bw_total::gpu.shader_cores3.inst       425218                       # Total bandwidth to/from this memory (bytes/s)
system.ruby.phys_mem.bw_total::total       7675113505                       # Total bandwidth to/from this memory (bytes/s)
system.cpu_voltage_domain.voltage                   1                       # Voltage in Volts
system.cpu_clk_domain.clock                       500                       # Clock period in ticks
system.cpu.apic_clk_domain.clock                 8000                       # Clock period in ticks
system.cpu.workload.num_syscalls                   28                       # Number of system calls
system.cpu.numCycles                          7864205                       # number of cpu cycles simulated
system.cpu.numWorkItemsStarted                      1                       # number of work items this cpu started
system.cpu.numWorkItemsCompleted                    1                       # number of work items this cpu completed
system.cpu.committedInsts                     1655400                       # Number of instructions committed
system.cpu.committedOps                       2723752                       # Number of ops (including micro ops) committed
system.cpu.num_int_alu_accesses               1974642                       # Number of integer alu accesses
system.cpu.num_fp_alu_accesses                1026154                       # Number of float alu accesses
system.cpu.num_func_calls                       31676                       # number of times a function call or return occured
system.cpu.num_conditional_control_insts       149205                       # number of instructions that are conditional controls
system.cpu.num_int_insts                      1974642                       # number of integer instructions
system.cpu.num_fp_insts                       1026154                       # number of float instructions
system.cpu.num_int_register_reads             3737239                       # number of times the integer registers were read
system.cpu.num_int_register_writes            1435200                       # number of times the integer registers were written
system.cpu.num_fp_register_reads              1958134                       # number of times the floating registers were read
system.cpu.num_fp_register_writes              903395                       # number of times the floating registers were written
system.cpu.num_cc_register_reads              1056894                       # number of times the CC registers were read
system.cpu.num_cc_register_writes              673719                       # number of times the CC registers were written
system.cpu.num_mem_refs                        477978                       # number of memory refs
system.cpu.num_load_insts                      312522                       # Number of load instructions
system.cpu.num_store_insts                     165456                       # Number of store instructions
system.cpu.num_idle_cycles               1934811.897508                       # Number of idle cycles
system.cpu.num_busy_cycles               5929393.102492                       # Number of busy cycles
system.cpu.not_idle_fraction                 0.753972                       # Percentage of non-idle cycles
system.cpu.idle_fraction                     0.246028                       # Percentage of idle cycles
system.cpu.Branches                            196559                       # Number of branches fetched
system.cpu.op_class::No_OpClass                  2269      0.08%      0.08% # Class of executed instruction
system.cpu.op_class::IntAlu                   1718526     63.09%     63.18% # Class of executed instruction
system.cpu.op_class::IntMult                    18031      0.66%     63.84% # Class of executed instruction
system.cpu.op_class::IntDiv                      1293      0.05%     63.89% # Class of executed instruction
system.cpu.op_class::FloatAdd                  505655     18.56%     82.45% # Class of executed instruction
system.cpu.op_class::FloatCmp                       0      0.00%     82.45% # Class of executed instruction
system.cpu.op_class::FloatCvt                       0      0.00%     82.45% # Class of executed instruction
system.cpu.op_class::FloatMult                      0      0.00%     82.45% # Class of executed instruction
system.cpu.op_class::FloatDiv                       0      0.00%     82.45% # Class of executed instruction
system.cpu.op_class::FloatSqrt                      0      0.00%     82.45% # Class of executed instruction
system.cpu.op_class::SimdAdd                        0      0.00%     82.45% # Class of executed instruction
system.cpu.op_class::SimdAddAcc                     0      0.00%     82.45% # Class of executed instruction
system.cpu.op_class::SimdAlu                        0      0.00%     82.45% # Class of executed instruction
system.cpu.op_class::SimdCmp                        0      0.00%     82.45% # Class of executed instruction
system.cpu.op_class::SimdCvt                        0      0.00%     82.45% # Class of executed instruction
system.cpu.op_class::SimdMisc                       0      0.00%     82.45% # Class of executed instruction
system.cpu.op_class::SimdMult                       0      0.00%     82.45% # Class of executed instruction
system.cpu.op_class::SimdMultAcc                    0      0.00%     82.45% # Class of executed instruction
system.cpu.op_class::SimdShift                      0      0.00%     82.45% # Class of executed instruction
system.cpu.op_class::SimdShiftAcc                   0      0.00%     82.45% # Class of executed instruction
system.cpu.op_class::SimdSqrt                       0      0.00%     82.45% # Class of executed instruction
system.cpu.op_class::SimdFloatAdd                   0      0.00%     82.45% # Class of executed instruction
system.cpu.op_class::SimdFloatAlu                   0      0.00%     82.45% # Class of executed instruction
system.cpu.op_class::SimdFloatCmp                   0      0.00%     82.45% # Class of executed instruction
system.cpu.op_class::SimdFloatCvt                   0      0.00%     82.45% # Class of executed instruction
system.cpu.op_class::SimdFloatDiv                   0      0.00%     82.45% # Class of executed instruction
system.cpu.op_class::SimdFloatMisc                  0      0.00%     82.45% # Class of executed instruction
system.cpu.op_class::SimdFloatMult                  0      0.00%     82.45% # Class of executed instruction
system.cpu.op_class::SimdFloatMultAcc               0      0.00%     82.45% # Class of executed instruction
system.cpu.op_class::SimdFloatSqrt                  0      0.00%     82.45% # Class of executed instruction
system.cpu.op_class::MemRead                   312522     11.47%     93.93% # Class of executed instruction
system.cpu.op_class::MemWrite                  165456      6.07%    100.00% # Class of executed instruction
system.cpu.op_class::IprAccess                      0      0.00%    100.00% # Class of executed instruction
system.cpu.op_class::InstPrefetch                   0      0.00%    100.00% # Class of executed instruction
system.cpu.op_class::total                    2723752                       # Class of executed instruction
system.gpu.clk_domain.voltage_domain.voltage            1                       # Voltage in Volts
system.gpu.clk_domain.clock                      1429                       # Clock period in ticks
system.gpu.dram_wrapper.clk_domain.clock          541                       # Clock period in ticks
system.gpu.icnt_wrapper.clk_domain.clock         2858                       # Clock period in ticks
system.ruby.outstanding_req_hist::bucket_size            8                      
system.ruby.outstanding_req_hist::max_bucket           79                      
system.ruby.outstanding_req_hist::samples      3071630                      
system.ruby.outstanding_req_hist::mean       1.033510                      
system.ruby.outstanding_req_hist::gmean      1.007448                      
system.ruby.outstanding_req_hist::stdev      0.979221                      
system.ruby.outstanding_req_hist         |     3068306     99.89%     99.89% |        1309      0.04%     99.93% |         640      0.02%     99.96% |         706      0.02%     99.98% |         126      0.00%     99.98% |          44      0.00%     99.98% |          41      0.00%     99.99% |         354      0.01%    100.00% |         104      0.00%    100.00% |           0      0.00%    100.00%
system.ruby.outstanding_req_hist::total       3071630                      
system.ruby.latency_hist::bucket_size            1024                      
system.ruby.latency_hist::max_bucket            10239                      
system.ruby.latency_hist::samples             3071630                      
system.ruby.latency_hist::mean               1.900016                      
system.ruby.latency_hist::gmean              1.021252                      
system.ruby.latency_hist::stdev             39.841309                      
system.ruby.latency_hist                 |     3071036     99.98%     99.98% |         197      0.01%     99.99% |         212      0.01%     99.99% |         134      0.00%    100.00% |          47      0.00%    100.00% |           4      0.00%    100.00% |           0      0.00%    100.00% |           0      0.00%    100.00% |           0      0.00%    100.00% |           0      0.00%    100.00%
system.ruby.latency_hist::total               3071630                      
system.ruby.hit_latency_hist::bucket_size           16                      
system.ruby.hit_latency_hist::max_bucket          159                      
system.ruby.hit_latency_hist::samples         3062630                      
system.ruby.hit_latency_hist::mean           1.030396                      
system.ruby.hit_latency_hist::gmean          1.007305                      
system.ruby.hit_latency_hist::stdev          0.553323                      
system.ruby.hit_latency_hist             |     3062626    100.00%    100.00% |           1      0.00%    100.00% |           2      0.00%    100.00% |           0      0.00%    100.00% |           0      0.00%    100.00% |           1      0.00%    100.00% |           0      0.00%    100.00% |           0      0.00%    100.00% |           0      0.00%    100.00% |           0      0.00%    100.00%
system.ruby.hit_latency_hist::total           3062630                      
system.ruby.miss_latency_hist::bucket_size         1024                      
system.ruby.miss_latency_hist::max_bucket        10239                      
system.ruby.miss_latency_hist::samples           9000                      
system.ruby.miss_latency_hist::mean        297.824889                      
system.ruby.miss_latency_hist::gmean       109.990233                      
system.ruby.miss_latency_hist::stdev       673.691725                      
system.ruby.miss_latency_hist            |        8406     93.40%     93.40% |         197      2.19%     95.59% |         212      2.36%     97.94% |         134      1.49%     99.43% |          47      0.52%     99.96% |           4      0.04%    100.00% |           0      0.00%    100.00% |           0      0.00%    100.00% |           0      0.00%    100.00% |           0      0.00%    100.00%
system.ruby.miss_latency_hist::total             9000                      
system.ruby.L1Cache.incomplete_times              152                      
system.gpu.shader_mmu.numPagefaults                 0                       # Number of Pagefaults
system.gpu.shader_mmu.numPagewalks                 28                       # Number of Pagewalks
system.gpu.shader_mmu.totalRequests                28                       # Total number of requests
system.gpu.shader_mmu.retryFailures                 0                       # Times the retry walk after a pagefault failed
system.gpu.shader_mmu.l2hits                        0                       # Hits in the shared L2
system.gpu.shader_mmu.prefetchHits                  0                       # Number of prefetch hits
system.gpu.shader_mmu.numPrefetches                 0                       # Number of prefetchs
system.gpu.shader_mmu.prefetchFaults                0                       # Number of faults caused by prefetches
system.gpu.shader_mmu.pagefaultLatency::samples            0                       # Latency to complete the pagefault
system.gpu.shader_mmu.pagefaultLatency::mean          nan                       # Latency to complete the pagefault
system.gpu.shader_mmu.pagefaultLatency::gmean          nan                       # Latency to complete the pagefault
system.gpu.shader_mmu.pagefaultLatency::stdev          nan                       # Latency to complete the pagefault
system.gpu.shader_mmu.pagefaultLatency::0            0                       # Latency to complete the pagefault
system.gpu.shader_mmu.pagefaultLatency::1            0                       # Latency to complete the pagefault
system.gpu.shader_mmu.pagefaultLatency::2            0                       # Latency to complete the pagefault
system.gpu.shader_mmu.pagefaultLatency::3            0                       # Latency to complete the pagefault
system.gpu.shader_mmu.pagefaultLatency::4            0                       # Latency to complete the pagefault
system.gpu.shader_mmu.pagefaultLatency::5            0                       # Latency to complete the pagefault
system.gpu.shader_mmu.pagefaultLatency::6            0                       # Latency to complete the pagefault
system.gpu.shader_mmu.pagefaultLatency::7            0                       # Latency to complete the pagefault
system.gpu.shader_mmu.pagefaultLatency::8            0                       # Latency to complete the pagefault
system.gpu.shader_mmu.pagefaultLatency::9            0                       # Latency to complete the pagefault
system.gpu.shader_mmu.pagefaultLatency::10            0                       # Latency to complete the pagefault
system.gpu.shader_mmu.pagefaultLatency::11            0                       # Latency to complete the pagefault
system.gpu.shader_mmu.pagefaultLatency::12            0                       # Latency to complete the pagefault
system.gpu.shader_mmu.pagefaultLatency::13            0                       # Latency to complete the pagefault
system.gpu.shader_mmu.pagefaultLatency::14            0                       # Latency to complete the pagefault
system.gpu.shader_mmu.pagefaultLatency::15            0                       # Latency to complete the pagefault
system.gpu.shader_mmu.pagefaultLatency::16            0                       # Latency to complete the pagefault
system.gpu.shader_mmu.pagefaultLatency::17            0                       # Latency to complete the pagefault
system.gpu.shader_mmu.pagefaultLatency::18            0                       # Latency to complete the pagefault
system.gpu.shader_mmu.pagefaultLatency::19            0                       # Latency to complete the pagefault
system.gpu.shader_mmu.pagefaultLatency::20            0                       # Latency to complete the pagefault
system.gpu.shader_mmu.pagefaultLatency::21            0                       # Latency to complete the pagefault
system.gpu.shader_mmu.pagefaultLatency::22            0                       # Latency to complete the pagefault
system.gpu.shader_mmu.pagefaultLatency::23            0                       # Latency to complete the pagefault
system.gpu.shader_mmu.pagefaultLatency::24            0                       # Latency to complete the pagefault
system.gpu.shader_mmu.pagefaultLatency::25            0                       # Latency to complete the pagefault
system.gpu.shader_mmu.pagefaultLatency::26            0                       # Latency to complete the pagefault
system.gpu.shader_mmu.pagefaultLatency::27            0                       # Latency to complete the pagefault
system.gpu.shader_mmu.pagefaultLatency::28            0                       # Latency to complete the pagefault
system.gpu.shader_mmu.pagefaultLatency::29            0                       # Latency to complete the pagefault
system.gpu.shader_mmu.pagefaultLatency::30            0                       # Latency to complete the pagefault
system.gpu.shader_mmu.pagefaultLatency::31            0                       # Latency to complete the pagefault
system.gpu.shader_mmu.pagefaultLatency::total            0                       # Latency to complete the pagefault
system.gpu.shader_mmu.concurrentWalks::samples           28                       # Number of outstanding walks
system.gpu.shader_mmu.concurrentWalks::mean            0                       # Number of outstanding walks
system.gpu.shader_mmu.concurrentWalks::gmean            0                       # Number of outstanding walks
system.gpu.shader_mmu.concurrentWalks::stdev            0                       # Number of outstanding walks
system.gpu.shader_mmu.concurrentWalks::0           28    100.00%    100.00% # Number of outstanding walks
system.gpu.shader_mmu.concurrentWalks::1            0      0.00%    100.00% # Number of outstanding walks
system.gpu.shader_mmu.concurrentWalks::2            0      0.00%    100.00% # Number of outstanding walks
system.gpu.shader_mmu.concurrentWalks::3            0      0.00%    100.00% # Number of outstanding walks
system.gpu.shader_mmu.concurrentWalks::4            0      0.00%    100.00% # Number of outstanding walks
system.gpu.shader_mmu.concurrentWalks::5            0      0.00%    100.00% # Number of outstanding walks
system.gpu.shader_mmu.concurrentWalks::6            0      0.00%    100.00% # Number of outstanding walks
system.gpu.shader_mmu.concurrentWalks::7            0      0.00%    100.00% # Number of outstanding walks
system.gpu.shader_mmu.concurrentWalks::8            0      0.00%    100.00% # Number of outstanding walks
system.gpu.shader_mmu.concurrentWalks::9            0      0.00%    100.00% # Number of outstanding walks
system.gpu.shader_mmu.concurrentWalks::10            0      0.00%    100.00% # Number of outstanding walks
system.gpu.shader_mmu.concurrentWalks::11            0      0.00%    100.00% # Number of outstanding walks
system.gpu.shader_mmu.concurrentWalks::12            0      0.00%    100.00% # Number of outstanding walks
system.gpu.shader_mmu.concurrentWalks::13            0      0.00%    100.00% # Number of outstanding walks
system.gpu.shader_mmu.concurrentWalks::14            0      0.00%    100.00% # Number of outstanding walks
system.gpu.shader_mmu.concurrentWalks::15            0      0.00%    100.00% # Number of outstanding walks
system.gpu.shader_mmu.concurrentWalks::total           28                       # Number of outstanding walks
system.gpu.shader_mmu.pagewalkLatency::samples           28                       # Latency to complete the pagewalk
system.gpu.shader_mmu.pagewalkLatency::mean            0                       # Latency to complete the pagewalk
system.gpu.shader_mmu.pagewalkLatency::gmean            0                       # Latency to complete the pagewalk
system.gpu.shader_mmu.pagewalkLatency::stdev            0                       # Latency to complete the pagewalk
system.gpu.shader_mmu.pagewalkLatency::0           28    100.00%    100.00% # Latency to complete the pagewalk
system.gpu.shader_mmu.pagewalkLatency::1            0      0.00%    100.00% # Latency to complete the pagewalk
system.gpu.shader_mmu.pagewalkLatency::2            0      0.00%    100.00% # Latency to complete the pagewalk
system.gpu.shader_mmu.pagewalkLatency::3            0      0.00%    100.00% # Latency to complete the pagewalk
system.gpu.shader_mmu.pagewalkLatency::4            0      0.00%    100.00% # Latency to complete the pagewalk
system.gpu.shader_mmu.pagewalkLatency::5            0      0.00%    100.00% # Latency to complete the pagewalk
system.gpu.shader_mmu.pagewalkLatency::6            0      0.00%    100.00% # Latency to complete the pagewalk
system.gpu.shader_mmu.pagewalkLatency::7            0      0.00%    100.00% # Latency to complete the pagewalk
system.gpu.shader_mmu.pagewalkLatency::8            0      0.00%    100.00% # Latency to complete the pagewalk
system.gpu.shader_mmu.pagewalkLatency::9            0      0.00%    100.00% # Latency to complete the pagewalk
system.gpu.shader_mmu.pagewalkLatency::10            0      0.00%    100.00% # Latency to complete the pagewalk
system.gpu.shader_mmu.pagewalkLatency::11            0      0.00%    100.00% # Latency to complete the pagewalk
system.gpu.shader_mmu.pagewalkLatency::12            0      0.00%    100.00% # Latency to complete the pagewalk
system.gpu.shader_mmu.pagewalkLatency::13            0      0.00%    100.00% # Latency to complete the pagewalk
system.gpu.shader_mmu.pagewalkLatency::14            0      0.00%    100.00% # Latency to complete the pagewalk
system.gpu.shader_mmu.pagewalkLatency::15            0      0.00%    100.00% # Latency to complete the pagewalk
system.gpu.shader_mmu.pagewalkLatency::16            0      0.00%    100.00% # Latency to complete the pagewalk
system.gpu.shader_mmu.pagewalkLatency::17            0      0.00%    100.00% # Latency to complete the pagewalk
system.gpu.shader_mmu.pagewalkLatency::18            0      0.00%    100.00% # Latency to complete the pagewalk
system.gpu.shader_mmu.pagewalkLatency::19            0      0.00%    100.00% # Latency to complete the pagewalk
system.gpu.shader_mmu.pagewalkLatency::20            0      0.00%    100.00% # Latency to complete the pagewalk
system.gpu.shader_mmu.pagewalkLatency::21            0      0.00%    100.00% # Latency to complete the pagewalk
system.gpu.shader_mmu.pagewalkLatency::22            0      0.00%    100.00% # Latency to complete the pagewalk
system.gpu.shader_mmu.pagewalkLatency::23            0      0.00%    100.00% # Latency to complete the pagewalk
system.gpu.shader_mmu.pagewalkLatency::24            0      0.00%    100.00% # Latency to complete the pagewalk
system.gpu.shader_mmu.pagewalkLatency::25            0      0.00%    100.00% # Latency to complete the pagewalk
system.gpu.shader_mmu.pagewalkLatency::26            0      0.00%    100.00% # Latency to complete the pagewalk
system.gpu.shader_mmu.pagewalkLatency::27            0      0.00%    100.00% # Latency to complete the pagewalk
system.gpu.shader_mmu.pagewalkLatency::28            0      0.00%    100.00% # Latency to complete the pagewalk
system.gpu.shader_mmu.pagewalkLatency::29            0      0.00%    100.00% # Latency to complete the pagewalk
system.gpu.shader_mmu.pagewalkLatency::30            0      0.00%    100.00% # Latency to complete the pagewalk
system.gpu.shader_mmu.pagewalkLatency::31            0      0.00%    100.00% # Latency to complete the pagewalk
system.gpu.shader_mmu.pagewalkLatency::total           28                       # Latency to complete the pagewalk
system.gpu.kernels_started                          9                       # Number of kernels started
system.gpu.kernels_completed                        9                       # Number of kernels completed
system.gpu.ce.device_dtb.hits                       0                       # Number of hits in this TLB
system.gpu.ce.device_dtb.misses                     0                       # Number of misses in this TLB
system.gpu.ce.device_dtb.hitRate                  nan                       # Hit rate for this TLB
system.gpu.ce.host_dtb.hits                       402                       # Number of hits in this TLB
system.gpu.ce.host_dtb.misses                      28                       # Number of misses in this TLB
system.gpu.ce.host_dtb.hitRate               0.934884                       # Hit rate for this TLB
system.gpu.shader_cores0.itb.hits                   0                       # Number of hits in this TLB
system.gpu.shader_cores0.itb.misses                 0                       # Number of misses in this TLB
system.gpu.shader_cores0.itb.hitRate              nan                       # Hit rate for this TLB
system.gpu.shader_cores0.local_loads                0                       # Number of loads from local space
system.gpu.shader_cores0.local_stores               0                       # Number of stores to local space
system.gpu.shader_cores0.shared_loads          363433                       # Number of loads from shared space
system.gpu.shader_cores0.shared_stores          28422                       # Number of stores to shared space
system.gpu.shader_cores0.param_kernel_loads       744532                       # Number of loads from kernel parameter space
system.gpu.shader_cores0.param_local_loads            0                       # Number of loads from local parameter space
system.gpu.shader_cores0.param_local_stores            0                       # Number of stores to local parameter space
system.gpu.shader_cores0.const_loads                0                       # Number of loads from constant space
system.gpu.shader_cores0.tex_loads                  0                       # Number of loads from texture space
system.gpu.shader_cores0.global_loads         1834927                       # Number of loads from global space
system.gpu.shader_cores0.global_stores           8590                       # Number of stores to global space
system.gpu.shader_cores0.surf_loads                 0                       # Number of loads from surface space
system.gpu.shader_cores0.generic_loads              0                       # Number of loads from generic spaces (global, shared, local)
system.gpu.shader_cores0.generic_stores             0                       # Number of stores to generic spaces (global, shared, local)
system.gpu.shader_cores0.inst_cache_requests           50                       # Number of instruction cache requests sent
system.gpu.shader_cores0.inst_cache_retries            0                       # Number of instruction cache retries
system.gpu.shader_cores0.inst_counts::0             0                       # Inst counts: 1: ALU, 2: MAD, 3: CTRL, 4: SFU, 5: MEM, 6: TEX, 7: NOP
system.gpu.shader_cores0.inst_counts::1      11411058                       # Inst counts: 1: ALU, 2: MAD, 3: CTRL, 4: SFU, 5: MEM, 6: TEX, 7: NOP
system.gpu.shader_cores0.inst_counts::2       1826592                       # Inst counts: 1: ALU, 2: MAD, 3: CTRL, 4: SFU, 5: MEM, 6: TEX, 7: NOP
system.gpu.shader_cores0.inst_counts::3       1638834                       # Inst counts: 1: ALU, 2: MAD, 3: CTRL, 4: SFU, 5: MEM, 6: TEX, 7: NOP
system.gpu.shader_cores0.inst_counts::4        247872                       # Inst counts: 1: ALU, 2: MAD, 3: CTRL, 4: SFU, 5: MEM, 6: TEX, 7: NOP
system.gpu.shader_cores0.inst_counts::5       2979904                       # Inst counts: 1: ALU, 2: MAD, 3: CTRL, 4: SFU, 5: MEM, 6: TEX, 7: NOP
system.gpu.shader_cores0.inst_counts::6             0                       # Inst counts: 1: ALU, 2: MAD, 3: CTRL, 4: SFU, 5: MEM, 6: TEX, 7: NOP
system.gpu.shader_cores0.inst_counts::7             0                       # Inst counts: 1: ALU, 2: MAD, 3: CTRL, 4: SFU, 5: MEM, 6: TEX, 7: NOP
system.gpu.shader_cores0.activeCycles          598005                       # Number of cycles this shader was executing a CTA
system.gpu.shader_cores0.notStalledCycles       449081                       # Number of cycles this shader was actually executing at least one instance
system.gpu.shader_cores0.instInstances       18104260                       # Total instructions executed by all PEs in the core
system.gpu.shader_cores0.instPerCycle       30.274429                       # Instruction instances per cycle
system.gpu.shader_cores0.kernels_completed            8                       # Number of kernels completed
system.gpu.shader_cores0.lsq.data_tlb.hits            0                       # Number of hits in this TLB
system.gpu.shader_cores0.lsq.data_tlb.misses            0                       # Number of misses in this TLB
system.gpu.shader_cores0.lsq.data_tlb.hitRate          nan                       # Hit rate for this TLB
system.gpu.shader_cores0.lsq.warpInstBufActive::samples    360127385                       # Histogram of number of active warp inst buffers at a given time
system.gpu.shader_cores0.lsq.warpInstBufActive::mean     3.643363                       # Histogram of number of active warp inst buffers at a given time
system.gpu.shader_cores0.lsq.warpInstBufActive::gmean          nan                       # Histogram of number of active warp inst buffers at a given time
system.gpu.shader_cores0.lsq.warpInstBufActive::stdev     6.226309                       # Histogram of number of active warp inst buffers at a given time
system.gpu.shader_cores0.lsq.warpInstBufActive::0   -240116920    -66.68%    -66.68% # Histogram of number of active warp inst buffers at a given time
system.gpu.shader_cores0.lsq.warpInstBufActive::1    319788765     88.80%     22.12% # Histogram of number of active warp inst buffers at a given time
system.gpu.shader_cores0.lsq.warpInstBufActive::2    189522554     52.63%     74.75% # Histogram of number of active warp inst buffers at a given time
system.gpu.shader_cores0.lsq.warpInstBufActive::3     64625096     17.95%     92.69% # Histogram of number of active warp inst buffers at a given time
system.gpu.shader_cores0.lsq.warpInstBufActive::4     13944182      3.87%     96.57% # Histogram of number of active warp inst buffers at a given time
system.gpu.shader_cores0.lsq.warpInstBufActive::5      2197802      0.61%     97.18% # Histogram of number of active warp inst buffers at a given time
system.gpu.shader_cores0.lsq.warpInstBufActive::6       568742      0.16%     97.34% # Histogram of number of active warp inst buffers at a given time
system.gpu.shader_cores0.lsq.warpInstBufActive::7       297232      0.08%     97.42% # Histogram of number of active warp inst buffers at a given time
system.gpu.shader_cores0.lsq.warpInstBufActive::8       281513      0.08%     97.50% # Histogram of number of active warp inst buffers at a given time
system.gpu.shader_cores0.lsq.warpInstBufActive::9       252933      0.07%     97.57% # Histogram of number of active warp inst buffers at a given time
system.gpu.shader_cores0.lsq.warpInstBufActive::10       264365      0.07%     97.64% # Histogram of number of active warp inst buffers at a given time
system.gpu.shader_cores0.lsq.warpInstBufActive::11       258649      0.07%     97.71% # Histogram of number of active warp inst buffers at a given time
system.gpu.shader_cores0.lsq.warpInstBufActive::12       231498      0.06%     97.78% # Histogram of number of active warp inst buffers at a given time
system.gpu.shader_cores0.lsq.warpInstBufActive::13       188628      0.05%     97.83% # Histogram of number of active warp inst buffers at a given time
system.gpu.shader_cores0.lsq.warpInstBufActive::14       241501      0.07%     97.89% # Histogram of number of active warp inst buffers at a given time
system.gpu.shader_cores0.lsq.warpInstBufActive::15       134326      0.04%     97.93% # Histogram of number of active warp inst buffers at a given time
system.gpu.shader_cores0.lsq.warpInstBufActive::16       274368      0.08%     98.01% # Histogram of number of active warp inst buffers at a given time
system.gpu.shader_cores0.lsq.warpInstBufActive::17       231498      0.06%     98.07% # Histogram of number of active warp inst buffers at a given time
system.gpu.shader_cores0.lsq.warpInstBufActive::18       190057      0.05%     98.13% # Histogram of number of active warp inst buffers at a given time
system.gpu.shader_cores0.lsq.warpInstBufActive::19       240072      0.07%     98.19% # Histogram of number of active warp inst buffers at a given time
system.gpu.shader_cores0.lsq.warpInstBufActive::20       191486      0.05%     98.25% # Histogram of number of active warp inst buffers at a given time
system.gpu.shader_cores0.lsq.warpInstBufActive::21       114320      0.03%     98.28% # Histogram of number of active warp inst buffers at a given time
system.gpu.shader_cores0.lsq.warpInstBufActive::22        28580      0.01%     98.29% # Histogram of number of active warp inst buffers at a given time
system.gpu.shader_cores0.lsq.warpInstBufActive::23       102888      0.03%     98.31% # Histogram of number of active warp inst buffers at a given time
system.gpu.shader_cores0.lsq.warpInstBufActive::24       184341      0.05%     98.36% # Histogram of number of active warp inst buffers at a given time
system.gpu.shader_cores0.lsq.warpInstBufActive::25       138613      0.04%     98.40% # Histogram of number of active warp inst buffers at a given time
system.gpu.shader_cores0.lsq.warpInstBufActive::26       130039      0.04%     98.44% # Histogram of number of active warp inst buffers at a given time
system.gpu.shader_cores0.lsq.warpInstBufActive::27        97172      0.03%     98.47% # Histogram of number of active warp inst buffers at a given time
system.gpu.shader_cores0.lsq.warpInstBufActive::28        28580      0.01%     98.47% # Histogram of number of active warp inst buffers at a given time
system.gpu.shader_cores0.lsq.warpInstBufActive::29        35725      0.01%     98.48% # Histogram of number of active warp inst buffers at a given time
system.gpu.shader_cores0.lsq.warpInstBufActive::30        35725      0.01%     98.49% # Histogram of number of active warp inst buffers at a given time
system.gpu.shader_cores0.lsq.warpInstBufActive::31       124323      0.03%     98.53% # Histogram of number of active warp inst buffers at a given time
system.gpu.shader_cores0.lsq.warpInstBufActive::32       112891      0.03%     98.56% # Histogram of number of active warp inst buffers at a given time
system.gpu.shader_cores0.lsq.warpInstBufActive::33       137184      0.04%     98.60% # Histogram of number of active warp inst buffers at a given time
system.gpu.shader_cores0.lsq.warpInstBufActive::34       128610      0.04%     98.63% # Histogram of number of active warp inst buffers at a given time
system.gpu.shader_cores0.lsq.warpInstBufActive::35       134326      0.04%     98.67% # Histogram of number of active warp inst buffers at a given time
system.gpu.shader_cores0.lsq.warpInstBufActive::36       164335      0.05%     98.72% # Histogram of number of active warp inst buffers at a given time
system.gpu.shader_cores0.lsq.warpInstBufActive::37       115749      0.03%     98.75% # Histogram of number of active warp inst buffers at a given time
system.gpu.shader_cores0.lsq.warpInstBufActive::38       138613      0.04%     98.79% # Histogram of number of active warp inst buffers at a given time
system.gpu.shader_cores0.lsq.warpInstBufActive::39       152903      0.04%     98.83% # Histogram of number of active warp inst buffers at a given time
system.gpu.shader_cores0.lsq.warpInstBufActive::40       111462      0.03%     98.86% # Histogram of number of active warp inst buffers at a given time
system.gpu.shader_cores0.lsq.warpInstBufActive::41        35725      0.01%     98.87% # Histogram of number of active warp inst buffers at a given time
system.gpu.shader_cores0.lsq.warpInstBufActive::42       121465      0.03%     98.90% # Histogram of number of active warp inst buffers at a given time
system.gpu.shader_cores0.lsq.warpInstBufActive::43        92885      0.03%     98.93% # Histogram of number of active warp inst buffers at a given time
system.gpu.shader_cores0.lsq.warpInstBufActive::44        28580      0.01%     98.94% # Histogram of number of active warp inst buffers at a given time
system.gpu.shader_cores0.lsq.warpInstBufActive::45        17148      0.00%     98.94% # Histogram of number of active warp inst buffers at a given time
system.gpu.shader_cores0.lsq.warpInstBufActive::46        47157      0.01%     98.96% # Histogram of number of active warp inst buffers at a given time
system.gpu.shader_cores0.lsq.warpInstBufActive::47        15719      0.00%     98.96% # Histogram of number of active warp inst buffers at a given time
system.gpu.shader_cores0.lsq.warpInstBufActive::48       131468      0.04%     99.00% # Histogram of number of active warp inst buffers at a given time
system.gpu.shader_cores0.lsq.warpInstBufActive::49       265794      0.07%     99.07% # Histogram of number of active warp inst buffers at a given time
system.gpu.shader_cores0.lsq.warpInstBufActive::50       140042      0.04%     99.11% # Histogram of number of active warp inst buffers at a given time
system.gpu.shader_cores0.lsq.warpInstBufActive::51       152903      0.04%     99.15% # Histogram of number of active warp inst buffers at a given time
system.gpu.shader_cores0.lsq.warpInstBufActive::52       154332      0.04%     99.19% # Histogram of number of active warp inst buffers at a given time
system.gpu.shader_cores0.lsq.warpInstBufActive::53       168622      0.05%     99.24% # Histogram of number of active warp inst buffers at a given time
system.gpu.shader_cores0.lsq.warpInstBufActive::54       207205      0.06%     99.30% # Histogram of number of active warp inst buffers at a given time
system.gpu.shader_cores0.lsq.warpInstBufActive::55        67163      0.02%     99.32% # Histogram of number of active warp inst buffers at a given time
system.gpu.shader_cores0.lsq.warpInstBufActive::56        38583      0.01%     99.33% # Histogram of number of active warp inst buffers at a given time
system.gpu.shader_cores0.lsq.warpInstBufActive::57        27151      0.01%     99.34% # Histogram of number of active warp inst buffers at a given time
system.gpu.shader_cores0.lsq.warpInstBufActive::58        17148      0.00%     99.34% # Histogram of number of active warp inst buffers at a given time
system.gpu.shader_cores0.lsq.warpInstBufActive::59         8574      0.00%     99.34% # Histogram of number of active warp inst buffers at a given time
system.gpu.shader_cores0.lsq.warpInstBufActive::60       160048      0.04%     99.39% # Histogram of number of active warp inst buffers at a given time
system.gpu.shader_cores0.lsq.warpInstBufActive::61        15719      0.00%     99.39% # Histogram of number of active warp inst buffers at a given time
system.gpu.shader_cores0.lsq.warpInstBufActive::62        18577      0.01%     99.40% # Histogram of number of active warp inst buffers at a given time
system.gpu.shader_cores0.lsq.warpInstBufActive::63       148616      0.04%     99.44% # Histogram of number of active warp inst buffers at a given time
system.gpu.shader_cores0.lsq.warpInstBufActive::64      2022035      0.56%    100.00% # Histogram of number of active warp inst buffers at a given time
system.gpu.shader_cores0.lsq.warpInstBufActive::total    360127385                       # Histogram of number of active warp inst buffers at a given time
system.gpu.shader_cores0.lsq.cacheAccesses     0.075463                       # Average number of concurrent outstanding cache accesses
system.gpu.shader_cores0.lsq.writebackBlockedCycles         7952                       # Number of cycles blocked for core writeback stage
system.gpu.shader_cores0.lsq.mshrHitQueued         1013                       # Number of hits on blocked lines in MSHRs
system.gpu.shader_cores0.lsq.mshrsFullCycles            0                       # Number of cycles stalled waiting for an MSHR
system.gpu.shader_cores0.lsq.mshrsFullCount            0                       # Number of times MSHRs filled
system.gpu.shader_cores0.lsq.warpCoalescedAccesses::samples        59314                       # Number of coalesced accesses per warp instruction
system.gpu.shader_cores0.lsq.warpCoalescedAccesses::mean     1.079155                       # Number of coalesced accesses per warp instruction
system.gpu.shader_cores0.lsq.warpCoalescedAccesses::gmean     1.026400                       # Number of coalesced accesses per warp instruction
system.gpu.shader_cores0.lsq.warpCoalescedAccesses::stdev     0.900017                       # Number of coalesced accesses per warp instruction
system.gpu.shader_cores0.lsq.warpCoalescedAccesses::0            0      0.00%      0.00% # Number of coalesced accesses per warp instruction
system.gpu.shader_cores0.lsq.warpCoalescedAccesses::1        58240     98.19%     98.19% # Number of coalesced accesses per warp instruction
system.gpu.shader_cores0.lsq.warpCoalescedAccesses::2          248      0.42%     98.61% # Number of coalesced accesses per warp instruction
system.gpu.shader_cores0.lsq.warpCoalescedAccesses::3          205      0.35%     98.95% # Number of coalesced accesses per warp instruction
system.gpu.shader_cores0.lsq.warpCoalescedAccesses::4          168      0.28%     99.24% # Number of coalesced accesses per warp instruction
system.gpu.shader_cores0.lsq.warpCoalescedAccesses::5          141      0.24%     99.47% # Number of coalesced accesses per warp instruction
system.gpu.shader_cores0.lsq.warpCoalescedAccesses::6           77      0.13%     99.60% # Number of coalesced accesses per warp instruction
system.gpu.shader_cores0.lsq.warpCoalescedAccesses::7           80      0.13%     99.74% # Number of coalesced accesses per warp instruction
system.gpu.shader_cores0.lsq.warpCoalescedAccesses::8           46      0.08%     99.82% # Number of coalesced accesses per warp instruction
system.gpu.shader_cores0.lsq.warpCoalescedAccesses::9            9      0.02%     99.83% # Number of coalesced accesses per warp instruction
system.gpu.shader_cores0.lsq.warpCoalescedAccesses::10            4      0.01%     99.84% # Number of coalesced accesses per warp instruction
system.gpu.shader_cores0.lsq.warpCoalescedAccesses::11           48      0.08%     99.92% # Number of coalesced accesses per warp instruction
system.gpu.shader_cores0.lsq.warpCoalescedAccesses::12            0      0.00%     99.92% # Number of coalesced accesses per warp instruction
system.gpu.shader_cores0.lsq.warpCoalescedAccesses::13            0      0.00%     99.92% # Number of coalesced accesses per warp instruction
system.gpu.shader_cores0.lsq.warpCoalescedAccesses::14            0      0.00%     99.92% # Number of coalesced accesses per warp instruction
system.gpu.shader_cores0.lsq.warpCoalescedAccesses::15            0      0.00%     99.92% # Number of coalesced accesses per warp instruction
system.gpu.shader_cores0.lsq.warpCoalescedAccesses::16            0      0.00%     99.92% # Number of coalesced accesses per warp instruction
system.gpu.shader_cores0.lsq.warpCoalescedAccesses::17            0      0.00%     99.92% # Number of coalesced accesses per warp instruction
system.gpu.shader_cores0.lsq.warpCoalescedAccesses::18            0      0.00%     99.92% # Number of coalesced accesses per warp instruction
system.gpu.shader_cores0.lsq.warpCoalescedAccesses::19            9      0.02%     99.93% # Number of coalesced accesses per warp instruction
system.gpu.shader_cores0.lsq.warpCoalescedAccesses::20            0      0.00%     99.93% # Number of coalesced accesses per warp instruction
system.gpu.shader_cores0.lsq.warpCoalescedAccesses::21            3      0.01%     99.94% # Number of coalesced accesses per warp instruction
system.gpu.shader_cores0.lsq.warpCoalescedAccesses::22            6      0.01%     99.95% # Number of coalesced accesses per warp instruction
system.gpu.shader_cores0.lsq.warpCoalescedAccesses::23            0      0.00%     99.95% # Number of coalesced accesses per warp instruction
system.gpu.shader_cores0.lsq.warpCoalescedAccesses::24            0      0.00%     99.95% # Number of coalesced accesses per warp instruction
system.gpu.shader_cores0.lsq.warpCoalescedAccesses::25            6      0.01%     99.96% # Number of coalesced accesses per warp instruction
system.gpu.shader_cores0.lsq.warpCoalescedAccesses::26            3      0.01%     99.96% # Number of coalesced accesses per warp instruction
system.gpu.shader_cores0.lsq.warpCoalescedAccesses::27            0      0.00%     99.96% # Number of coalesced accesses per warp instruction
system.gpu.shader_cores0.lsq.warpCoalescedAccesses::28            0      0.00%     99.96% # Number of coalesced accesses per warp instruction
system.gpu.shader_cores0.lsq.warpCoalescedAccesses::29            0      0.00%     99.96% # Number of coalesced accesses per warp instruction
system.gpu.shader_cores0.lsq.warpCoalescedAccesses::30            6      0.01%     99.97% # Number of coalesced accesses per warp instruction
system.gpu.shader_cores0.lsq.warpCoalescedAccesses::31           12      0.02%     99.99% # Number of coalesced accesses per warp instruction
system.gpu.shader_cores0.lsq.warpCoalescedAccesses::32            3      0.01%    100.00% # Number of coalesced accesses per warp instruction
system.gpu.shader_cores0.lsq.warpCoalescedAccesses::total        59314                       # Number of coalesced accesses per warp instruction
system.gpu.shader_cores0.lsq.warpLatencyRead::samples        58469                       # Latency in cycles for whole warp to finish the read
system.gpu.shader_cores0.lsq.warpLatencyRead::mean    11.724008                       # Latency in cycles for whole warp to finish the read
system.gpu.shader_cores0.lsq.warpLatencyRead::gmean    11.260651                       # Latency in cycles for whole warp to finish the read
system.gpu.shader_cores0.lsq.warpLatencyRead::stdev    24.007566                       # Latency in cycles for whole warp to finish the read
system.gpu.shader_cores0.lsq.warpLatencyRead::0-255        58446     99.96%     99.96% # Latency in cycles for whole warp to finish the read
system.gpu.shader_cores0.lsq.warpLatencyRead::256-511           11      0.02%     99.98% # Latency in cycles for whole warp to finish the read
system.gpu.shader_cores0.lsq.warpLatencyRead::512-767            3      0.01%     99.98% # Latency in cycles for whole warp to finish the read
system.gpu.shader_cores0.lsq.warpLatencyRead::768-1023            1      0.00%     99.99% # Latency in cycles for whole warp to finish the read
system.gpu.shader_cores0.lsq.warpLatencyRead::1024-1279            0      0.00%     99.99% # Latency in cycles for whole warp to finish the read
system.gpu.shader_cores0.lsq.warpLatencyRead::1280-1535            4      0.01%     99.99% # Latency in cycles for whole warp to finish the read
system.gpu.shader_cores0.lsq.warpLatencyRead::1536-1791            0      0.00%     99.99% # Latency in cycles for whole warp to finish the read
system.gpu.shader_cores0.lsq.warpLatencyRead::1792-2047            0      0.00%     99.99% # Latency in cycles for whole warp to finish the read
system.gpu.shader_cores0.lsq.warpLatencyRead::2048-2303            0      0.00%     99.99% # Latency in cycles for whole warp to finish the read
system.gpu.shader_cores0.lsq.warpLatencyRead::2304-2559            4      0.01%    100.00% # Latency in cycles for whole warp to finish the read
system.gpu.shader_cores0.lsq.warpLatencyRead::2560-2815            0      0.00%    100.00% # Latency in cycles for whole warp to finish the read
system.gpu.shader_cores0.lsq.warpLatencyRead::2816-3071            0      0.00%    100.00% # Latency in cycles for whole warp to finish the read
system.gpu.shader_cores0.lsq.warpLatencyRead::3072-3327            0      0.00%    100.00% # Latency in cycles for whole warp to finish the read
system.gpu.shader_cores0.lsq.warpLatencyRead::3328-3583            0      0.00%    100.00% # Latency in cycles for whole warp to finish the read
system.gpu.shader_cores0.lsq.warpLatencyRead::3584-3839            0      0.00%    100.00% # Latency in cycles for whole warp to finish the read
system.gpu.shader_cores0.lsq.warpLatencyRead::3840-4095            0      0.00%    100.00% # Latency in cycles for whole warp to finish the read
system.gpu.shader_cores0.lsq.warpLatencyRead::total        58469                       # Latency in cycles for whole warp to finish the read
system.gpu.shader_cores0.lsq.warpLatencyWrite::samples          794                       # Latency in cycles for whole warp to finish the write
system.gpu.shader_cores0.lsq.warpLatencyWrite::mean   200.124685                       # Latency in cycles for whole warp to finish the write
system.gpu.shader_cores0.lsq.warpLatencyWrite::gmean    42.960105                       # Latency in cycles for whole warp to finish the write
system.gpu.shader_cores0.lsq.warpLatencyWrite::stdev   383.826534                       # Latency in cycles for whole warp to finish the write
system.gpu.shader_cores0.lsq.warpLatencyWrite::0-127          615     77.46%     77.46% # Latency in cycles for whole warp to finish the write
system.gpu.shader_cores0.lsq.warpLatencyWrite::128-255           21      2.64%     80.10% # Latency in cycles for whole warp to finish the write
system.gpu.shader_cores0.lsq.warpLatencyWrite::256-383           20      2.52%     82.62% # Latency in cycles for whole warp to finish the write
system.gpu.shader_cores0.lsq.warpLatencyWrite::384-511           11      1.39%     84.01% # Latency in cycles for whole warp to finish the write
system.gpu.shader_cores0.lsq.warpLatencyWrite::512-639           16      2.02%     86.02% # Latency in cycles for whole warp to finish the write
system.gpu.shader_cores0.lsq.warpLatencyWrite::640-767           14      1.76%     87.78% # Latency in cycles for whole warp to finish the write
system.gpu.shader_cores0.lsq.warpLatencyWrite::768-895           17      2.14%     89.92% # Latency in cycles for whole warp to finish the write
system.gpu.shader_cores0.lsq.warpLatencyWrite::896-1023           19      2.39%     92.32% # Latency in cycles for whole warp to finish the write
system.gpu.shader_cores0.lsq.warpLatencyWrite::1024-1151           21      2.64%     94.96% # Latency in cycles for whole warp to finish the write
system.gpu.shader_cores0.lsq.warpLatencyWrite::1152-1279           13      1.64%     96.60% # Latency in cycles for whole warp to finish the write
system.gpu.shader_cores0.lsq.warpLatencyWrite::1280-1407            9      1.13%     97.73% # Latency in cycles for whole warp to finish the write
system.gpu.shader_cores0.lsq.warpLatencyWrite::1408-1535           11      1.39%     99.12% # Latency in cycles for whole warp to finish the write
system.gpu.shader_cores0.lsq.warpLatencyWrite::1536-1663            6      0.76%     99.87% # Latency in cycles for whole warp to finish the write
system.gpu.shader_cores0.lsq.warpLatencyWrite::1664-1791            1      0.13%    100.00% # Latency in cycles for whole warp to finish the write
system.gpu.shader_cores0.lsq.warpLatencyWrite::1792-1919            0      0.00%    100.00% # Latency in cycles for whole warp to finish the write
system.gpu.shader_cores0.lsq.warpLatencyWrite::1920-2047            0      0.00%    100.00% # Latency in cycles for whole warp to finish the write
system.gpu.shader_cores0.lsq.warpLatencyWrite::total          794                       # Latency in cycles for whole warp to finish the write
system.gpu.shader_cores0.lsq.warpLatencyFence::samples          571                       # Latency in cycles for whole warp to finish the fence
system.gpu.shader_cores0.lsq.warpLatencyFence::mean     8.225919                       # Latency in cycles for whole warp to finish the fence
system.gpu.shader_cores0.lsq.warpLatencyFence::gmean     6.412437                       # Latency in cycles for whole warp to finish the fence
system.gpu.shader_cores0.lsq.warpLatencyFence::stdev    19.429940                       # Latency in cycles for whole warp to finish the fence
system.gpu.shader_cores0.lsq.warpLatencyFence::0-15          557     97.55%     97.55% # Latency in cycles for whole warp to finish the fence
system.gpu.shader_cores0.lsq.warpLatencyFence::16-31            3      0.53%     98.07% # Latency in cycles for whole warp to finish the fence
system.gpu.shader_cores0.lsq.warpLatencyFence::32-47            4      0.70%     98.77% # Latency in cycles for whole warp to finish the fence
system.gpu.shader_cores0.lsq.warpLatencyFence::48-63            3      0.53%     99.30% # Latency in cycles for whole warp to finish the fence
system.gpu.shader_cores0.lsq.warpLatencyFence::64-79            0      0.00%     99.30% # Latency in cycles for whole warp to finish the fence
system.gpu.shader_cores0.lsq.warpLatencyFence::80-95            0      0.00%     99.30% # Latency in cycles for whole warp to finish the fence
system.gpu.shader_cores0.lsq.warpLatencyFence::96-111            0      0.00%     99.30% # Latency in cycles for whole warp to finish the fence
system.gpu.shader_cores0.lsq.warpLatencyFence::112-127            0      0.00%     99.30% # Latency in cycles for whole warp to finish the fence
system.gpu.shader_cores0.lsq.warpLatencyFence::128-143            0      0.00%     99.30% # Latency in cycles for whole warp to finish the fence
system.gpu.shader_cores0.lsq.warpLatencyFence::144-159            0      0.00%     99.30% # Latency in cycles for whole warp to finish the fence
system.gpu.shader_cores0.lsq.warpLatencyFence::160-175            0      0.00%     99.30% # Latency in cycles for whole warp to finish the fence
system.gpu.shader_cores0.lsq.warpLatencyFence::176-191            0      0.00%     99.30% # Latency in cycles for whole warp to finish the fence
system.gpu.shader_cores0.lsq.warpLatencyFence::192-207            0      0.00%     99.30% # Latency in cycles for whole warp to finish the fence
system.gpu.shader_cores0.lsq.warpLatencyFence::208-223            1      0.18%     99.47% # Latency in cycles for whole warp to finish the fence
system.gpu.shader_cores0.lsq.warpLatencyFence::224-239            2      0.35%     99.82% # Latency in cycles for whole warp to finish the fence
system.gpu.shader_cores0.lsq.warpLatencyFence::240-255            1      0.18%    100.00% # Latency in cycles for whole warp to finish the fence
system.gpu.shader_cores0.lsq.warpLatencyFence::total          571                       # Latency in cycles for whole warp to finish the fence
system.gpu.shader_cores0.lsq.warpLatencyAtomic::samples           51                       # Latency in cycles for whole warp to finish the atomic
system.gpu.shader_cores0.lsq.warpLatencyAtomic::mean  1354.705882                       # Latency in cycles for whole warp to finish the atomic
system.gpu.shader_cores0.lsq.warpLatencyAtomic::gmean   914.232391                       # Latency in cycles for whole warp to finish the atomic
system.gpu.shader_cores0.lsq.warpLatencyAtomic::stdev   811.472471                       # Latency in cycles for whole warp to finish the atomic
system.gpu.shader_cores0.lsq.warpLatencyAtomic::0-255            6     11.76%     11.76% # Latency in cycles for whole warp to finish the atomic
system.gpu.shader_cores0.lsq.warpLatencyAtomic::256-511            5      9.80%     21.57% # Latency in cycles for whole warp to finish the atomic
system.gpu.shader_cores0.lsq.warpLatencyAtomic::512-767            3      5.88%     27.45% # Latency in cycles for whole warp to finish the atomic
system.gpu.shader_cores0.lsq.warpLatencyAtomic::768-1023            5      9.80%     37.25% # Latency in cycles for whole warp to finish the atomic
system.gpu.shader_cores0.lsq.warpLatencyAtomic::1024-1279            5      9.80%     47.06% # Latency in cycles for whole warp to finish the atomic
system.gpu.shader_cores0.lsq.warpLatencyAtomic::1280-1535            4      7.84%     54.90% # Latency in cycles for whole warp to finish the atomic
system.gpu.shader_cores0.lsq.warpLatencyAtomic::1536-1791            4      7.84%     62.75% # Latency in cycles for whole warp to finish the atomic
system.gpu.shader_cores0.lsq.warpLatencyAtomic::1792-2047            5      9.80%     72.55% # Latency in cycles for whole warp to finish the atomic
system.gpu.shader_cores0.lsq.warpLatencyAtomic::2048-2303            5      9.80%     82.35% # Latency in cycles for whole warp to finish the atomic
system.gpu.shader_cores0.lsq.warpLatencyAtomic::2304-2559            9     17.65%    100.00% # Latency in cycles for whole warp to finish the atomic
system.gpu.shader_cores0.lsq.warpLatencyAtomic::2560-2815            0      0.00%    100.00% # Latency in cycles for whole warp to finish the atomic
system.gpu.shader_cores0.lsq.warpLatencyAtomic::2816-3071            0      0.00%    100.00% # Latency in cycles for whole warp to finish the atomic
system.gpu.shader_cores0.lsq.warpLatencyAtomic::3072-3327            0      0.00%    100.00% # Latency in cycles for whole warp to finish the atomic
system.gpu.shader_cores0.lsq.warpLatencyAtomic::3328-3583            0      0.00%    100.00% # Latency in cycles for whole warp to finish the atomic
system.gpu.shader_cores0.lsq.warpLatencyAtomic::3584-3839            0      0.00%    100.00% # Latency in cycles for whole warp to finish the atomic
system.gpu.shader_cores0.lsq.warpLatencyAtomic::3840-4095            0      0.00%    100.00% # Latency in cycles for whole warp to finish the atomic
system.gpu.shader_cores0.lsq.warpLatencyAtomic::total           51                       # Latency in cycles for whole warp to finish the atomic
system.gpu.shader_cores0.lsq.tlbMissLatency::samples            0                       # Latency in cycles for TLB miss
system.gpu.shader_cores0.lsq.tlbMissLatency::mean          nan                       # Latency in cycles for TLB miss
system.gpu.shader_cores0.lsq.tlbMissLatency::gmean          nan                       # Latency in cycles for TLB miss
system.gpu.shader_cores0.lsq.tlbMissLatency::stdev          nan                       # Latency in cycles for TLB miss
system.gpu.shader_cores0.lsq.tlbMissLatency::0            0                       # Latency in cycles for TLB miss
system.gpu.shader_cores0.lsq.tlbMissLatency::1            0                       # Latency in cycles for TLB miss
system.gpu.shader_cores0.lsq.tlbMissLatency::2            0                       # Latency in cycles for TLB miss
system.gpu.shader_cores0.lsq.tlbMissLatency::3            0                       # Latency in cycles for TLB miss
system.gpu.shader_cores0.lsq.tlbMissLatency::4            0                       # Latency in cycles for TLB miss
system.gpu.shader_cores0.lsq.tlbMissLatency::5            0                       # Latency in cycles for TLB miss
system.gpu.shader_cores0.lsq.tlbMissLatency::6            0                       # Latency in cycles for TLB miss
system.gpu.shader_cores0.lsq.tlbMissLatency::7            0                       # Latency in cycles for TLB miss
system.gpu.shader_cores0.lsq.tlbMissLatency::8            0                       # Latency in cycles for TLB miss
system.gpu.shader_cores0.lsq.tlbMissLatency::9            0                       # Latency in cycles for TLB miss
system.gpu.shader_cores0.lsq.tlbMissLatency::10            0                       # Latency in cycles for TLB miss
system.gpu.shader_cores0.lsq.tlbMissLatency::11            0                       # Latency in cycles for TLB miss
system.gpu.shader_cores0.lsq.tlbMissLatency::12            0                       # Latency in cycles for TLB miss
system.gpu.shader_cores0.lsq.tlbMissLatency::13            0                       # Latency in cycles for TLB miss
system.gpu.shader_cores0.lsq.tlbMissLatency::14            0                       # Latency in cycles for TLB miss
system.gpu.shader_cores0.lsq.tlbMissLatency::15            0                       # Latency in cycles for TLB miss
system.gpu.shader_cores0.lsq.tlbMissLatency::total            0                       # Latency in cycles for TLB miss
system.gpu.shader_cores1.itb.hits                   0                       # Number of hits in this TLB
system.gpu.shader_cores1.itb.misses                 0                       # Number of misses in this TLB
system.gpu.shader_cores1.itb.hitRate              nan                       # Hit rate for this TLB
system.gpu.shader_cores1.local_loads                0                       # Number of loads from local space
system.gpu.shader_cores1.local_stores               0                       # Number of stores to local space
system.gpu.shader_cores1.shared_loads          283571                       # Number of loads from shared space
system.gpu.shader_cores1.shared_stores          27074                       # Number of stores to shared space
system.gpu.shader_cores1.param_kernel_loads       575807                       # Number of loads from kernel parameter space
system.gpu.shader_cores1.param_local_loads            0                       # Number of loads from local parameter space
system.gpu.shader_cores1.param_local_stores            0                       # Number of stores to local parameter space
system.gpu.shader_cores1.const_loads                0                       # Number of loads from constant space
system.gpu.shader_cores1.tex_loads                  0                       # Number of loads from texture space
system.gpu.shader_cores1.global_loads         1409037                       # Number of loads from global space
system.gpu.shader_cores1.global_stores           8540                       # Number of stores to global space
system.gpu.shader_cores1.surf_loads                 0                       # Number of loads from surface space
system.gpu.shader_cores1.generic_loads              0                       # Number of loads from generic spaces (global, shared, local)
system.gpu.shader_cores1.generic_stores             0                       # Number of stores to generic spaces (global, shared, local)
system.gpu.shader_cores1.inst_cache_requests           58                       # Number of instruction cache requests sent
system.gpu.shader_cores1.inst_cache_retries            0                       # Number of instruction cache retries
system.gpu.shader_cores1.inst_counts::0             0                       # Inst counts: 1: ALU, 2: MAD, 3: CTRL, 4: SFU, 5: MEM, 6: TEX, 7: NOP
system.gpu.shader_cores1.inst_counts::1       8853679                       # Inst counts: 1: ALU, 2: MAD, 3: CTRL, 4: SFU, 5: MEM, 6: TEX, 7: NOP
[...]
system.ruby.L1Cache_Controller.IM.L1_to_L2 |           0      0.00%      0.00% |          35      0.66%      0.66% |          47      0.89%      1.55% |          21      0.40%      1.95% |          49      0.93%      2.88% |           0      0.00%      2.88% |        5126     97.12%    100.00%
system.ruby.L1Cache_Controller.IM.L1_to_L2::total         5278                      
system.ruby.L1Cache_Controller.IM.Other_GETX |           0      0.00%      0.00% |          75     26.13%     26.13% |          70     24.39%     50.52% |          72     25.09%     75.61% |          70     24.39%    100.00% |           0      0.00%    100.00% |           0      0.00%    100.00%
system.ruby.L1Cache_Controller.IM.Other_GETX::total          287                      
system.ruby.L1Cache_Controller.IM.Ack    |        2238     10.70%     10.70% |        3038     14.52%     25.22% |        3421     16.35%     41.57% |        5135     24.54%     66.11% |        4622     22.09%     88.20% |           0      0.00%     88.20% |        2469     11.80%    100.00%
system.ruby.L1Cache_Controller.IM.Ack::total        20923                      
system.ruby.L1Cache_Controller.IM.Data   |           0      0.00%      0.00% |           3     15.79%     15.79% |           0      0.00%     15.79% |           1      5.26%     21.05% |           9     47.37%     68.42% |           0      0.00%     68.42% |           6     31.58%    100.00%
system.ruby.L1Cache_Controller.IM.Data::total           19                      
system.ruby.L1Cache_Controller.IM.Exclusive_Data |         373      8.40%      8.40% |         689     15.51%     23.90% |         775     17.44%     41.35% |        1124     25.30%     66.64% |        1065     23.97%     90.61% |           0      0.00%     90.61% |         417      9.39%    100.00%
system.ruby.L1Cache_Controller.IM.Exclusive_Data::total         4443                      
system.ruby.L1Cache_Controller.SM.L1_to_L2 |           0      0.00%      0.00% |           0      0.00%      0.00% |           0      0.00%      0.00% |           4    100.00%    100.00% |           0      0.00%    100.00% |           0      0.00%    100.00% |           0      0.00%    100.00%
system.ruby.L1Cache_Controller.SM.L1_to_L2::total            4                      
system.ruby.L1Cache_Controller.SM.Other_GETX |           0      0.00%      0.00% |           0      0.00%      0.00% |           0      0.00%      0.00% |           1     50.00%     50.00% |           1     50.00%    100.00% |           0      0.00%    100.00% |           0      0.00%    100.00%
system.ruby.L1Cache_Controller.SM.Other_GETX::total            2                      
system.ruby.L1Cache_Controller.SM.Ack    |           0      0.00%      0.00% |         156     16.65%     16.65% |          84      8.96%     25.61% |         419     44.72%     70.33% |         278     29.67%    100.00% |           0      0.00%    100.00% |           0      0.00%    100.00%
system.ruby.L1Cache_Controller.SM.Ack::total          937                      
system.ruby.L1Cache_Controller.SM.Data   |           0      0.00%      0.00% |          50     19.01%     19.01% |          28     10.65%     29.66% |         115     43.73%     73.38% |          70     26.62%    100.00% |           0      0.00%    100.00% |           0      0.00%    100.00%
system.ruby.L1Cache_Controller.SM.Data::total          263                      
system.ruby.L1Cache_Controller.OM.L1_to_L2 |           0      0.00%      0.00% |           0      0.00%      0.00% |           0      0.00%      0.00% |           9    100.00%    100.00% |           0      0.00%    100.00% |           0      0.00%    100.00% |           0      0.00%    100.00%
system.ruby.L1Cache_Controller.OM.L1_to_L2::total            9                      
system.ruby.L1Cache_Controller.OM.Other_GETX |           0      0.00%      0.00% |           0      0.00%      0.00% |           3     60.00%     60.00% |           1     20.00%     80.00% |           1     20.00%    100.00% |           0      0.00%    100.00% |           0      0.00%    100.00%
system.ruby.L1Cache_Controller.OM.Other_GETX::total            5                      
system.ruby.L1Cache_Controller.OM.Ack    |           0      0.00%      0.00% |          30      2.87%      2.87% |          18      1.72%      4.60% |         576     55.17%     59.77% |         420     40.23%    100.00% |           0      0.00%    100.00% |           0      0.00%    100.00%
system.ruby.L1Cache_Controller.OM.Ack::total         1044                      
system.ruby.L1Cache_Controller.OM.All_acks_no_sharers |           0      0.00%      0.00% |           5      2.87%      2.87% |           3      1.72%      4.60% |          96     55.17%     59.77% |          70     40.23%    100.00% |           0      0.00%    100.00% |           0      0.00%    100.00%
system.ruby.L1Cache_Controller.OM.All_acks_no_sharers::total          174                      
system.ruby.L1Cache_Controller.ISM.Ack   |           0      0.00%      0.00% |         101     23.99%     23.99% |          56     13.30%     37.29% |         156     37.05%     74.35% |          91     21.62%     95.96% |           0      0.00%     95.96% |          17      4.04%    100.00%
system.ruby.L1Cache_Controller.ISM.Ack::total          421                      
system.ruby.L1Cache_Controller.ISM.All_acks_no_sharers |           0      0.00%      0.00% |          53     18.79%     18.79% |          28      9.93%     28.72% |         116     41.13%     69.86% |          79     28.01%     97.87% |           0      0.00%     97.87% |           6      2.13%    100.00%
system.ruby.L1Cache_Controller.ISM.All_acks_no_sharers::total          282                      
system.ruby.L1Cache_Controller.M_W.Load  |           2      4.17%      4.17% |          31     64.58%     68.75% |           2      4.17%     72.92% |           8     16.67%     89.58% |           5     10.42%    100.00% |           0      0.00%    100.00% |           0      0.00%    100.00%
system.ruby.L1Cache_Controller.M_W.Load::total           48                      
system.ruby.L1Cache_Controller.M_W.L1_to_L2 |           0      0.00%      0.00% |           0      0.00%      0.00% |           0      0.00%      0.00% |           0      0.00%      0.00% |           0      0.00%      0.00% |           0      0.00%      0.00% |         929    100.00%    100.00%
system.ruby.L1Cache_Controller.M_W.L1_to_L2::total          929                      
system.ruby.L1Cache_Controller.M_W.Ack   |          30      2.27%      2.27% |         225     17.05%     19.32% |         280     21.21%     40.53% |         341     25.83%     66.36% |         161     12.20%     78.56% |           0      0.00%     78.56% |         283     21.44%    100.00%
system.ruby.L1Cache_Controller.M_W.Ack::total         1320                      
system.ruby.L1Cache_Controller.M_W.All_acks_no_sharers |        1222     48.43%     48.43% |         159      6.30%     54.74% |         178      7.06%     61.79% |         355     14.07%     75.86% |         191      7.57%     83.43% |           0      0.00%     83.43% |         418     16.57%    100.00%
system.ruby.L1Cache_Controller.M_W.All_acks_no_sharers::total         2523                      
system.ruby.L1Cache_Controller.MM_W.Load |           0      0.00%      0.00% |           0      0.00%      0.00% |           1      8.33%      8.33% |           5     41.67%     50.00% |           6     50.00%    100.00% |           0      0.00%    100.00% |           0      0.00%    100.00%
system.ruby.L1Cache_Controller.MM_W.Load::total           12                      
system.ruby.L1Cache_Controller.MM_W.Store |           0      0.00%      0.00% |         158     19.24%     19.24% |         148     18.03%     37.27% |         233     28.38%     65.65% |         282     34.35%    100.00% |           0      0.00%    100.00% |           0      0.00%    100.00%
system.ruby.L1Cache_Controller.MM_W.Store::total          821                      
system.ruby.L1Cache_Controller.MM_W.L1_to_L2 |           0      0.00%      0.00% |           0      0.00%      0.00% |           0      0.00%      0.00% |           0      0.00%      0.00% |           0      0.00%      0.00% |           0      0.00%      0.00% |         626    100.00%    100.00%
system.ruby.L1Cache_Controller.MM_W.L1_to_L2::total          626                      
system.ruby.L1Cache_Controller.MM_W.Ack  |           0      0.00%      0.00% |         625     20.31%     20.31% |         671     21.81%     42.12% |         809     26.29%     68.41% |         940     30.55%     98.96% |           0      0.00%     98.96% |          32      1.04%    100.00%
system.ruby.L1Cache_Controller.MM_W.Ack::total         3077                      
system.ruby.L1Cache_Controller.MM_W.All_acks_no_sharers |         373      8.40%      8.40% |         689     15.51%     23.90% |         775     17.44%     41.35% |        1124     25.30%     66.64% |        1065     23.97%     90.61% |           0      0.00%     90.61% |         417      9.39%    100.00%
system.ruby.L1Cache_Controller.MM_W.All_acks_no_sharers::total         4443                      
system.ruby.L1Cache_Controller.IS.L1_to_L2 |           0      0.00%      0.00% |           0      0.00%      0.00% |           0      0.00%      0.00% |           0      0.00%      0.00% |           0      0.00%      0.00% |           0      0.00%      0.00% |        6883    100.00%    100.00%
system.ruby.L1Cache_Controller.IS.L1_to_L2::total         6883                      
system.ruby.L1Cache_Controller.IS.Other_GETX |           0      0.00%      0.00% |           0      0.00%      0.00% |           0      0.00%      0.00% |           1     33.33%     33.33% |           2     66.67%    100.00% |           0      0.00%    100.00% |           0      0.00%    100.00%
system.ruby.L1Cache_Controller.IS.Other_GETX::total            3                      
system.ruby.L1Cache_Controller.IS.Other_GETS |           0      0.00%      0.00% |          17     18.68%     18.68% |          25     27.47%     46.15% |          28     30.77%     76.92% |          21     23.08%    100.00% |           0      0.00%    100.00% |           0      0.00%    100.00%
system.ruby.L1Cache_Controller.IS.Other_GETS::total           91                      
system.ruby.L1Cache_Controller.IS.Other_GETS_No_Mig |           0      0.00%      0.00% |           0      0.00%      0.00% |           1     50.00%     50.00% |           0      0.00%     50.00% |           1     50.00%    100.00% |           0      0.00%    100.00% |           0      0.00%    100.00%
system.ruby.L1Cache_Controller.IS.Other_GETS_No_Mig::total            2                      
system.ruby.L1Cache_Controller.IS.Ack    |        7289     42.65%     42.65% |        1675      9.80%     52.45% |        1499      8.77%     61.23% |        2765     16.18%     77.41% |        2040     11.94%     89.34% |           0      0.00%     89.34% |        1821     10.66%    100.00%
system.ruby.L1Cache_Controller.IS.Ack::total        17089                      
system.ruby.L1Cache_Controller.IS.Shared_Ack |           0      0.00%      0.00% |         154     26.69%     26.69% |         170     29.46%     56.15% |         123     21.32%     77.47% |         130     22.53%    100.00% |           0      0.00%    100.00% |           0      0.00%    100.00%
system.ruby.L1Cache_Controller.IS.Shared_Ack::total          577                      
system.ruby.L1Cache_Controller.IS.Shared_Data |           0      0.00%      0.00% |         389     24.65%     24.65% |         349     22.12%     46.77% |         413     26.17%     72.94% |         421     26.68%     99.62% |           0      0.00%     99.62% |           6      0.38%    100.00%
system.ruby.L1Cache_Controller.IS.Shared_Data::total         1578                      
system.ruby.L1Cache_Controller.IS.Exclusive_Data |        1222     48.43%     48.43% |         159      6.30%     54.74% |         178      7.06%     61.79% |         355     14.07%     75.86% |         191      7.57%     83.43% |           0      0.00%     83.43% |         418     16.57%    100.00%
system.ruby.L1Cache_Controller.IS.Exclusive_Data::total         2523                      
system.ruby.L1Cache_Controller.SS.Load   |           0      0.00%      0.00% |          11      9.02%      9.02% |          35     28.69%     37.70% |          34     27.87%     65.57% |          42     34.43%    100.00% |           0      0.00%    100.00% |           0      0.00%    100.00%
system.ruby.L1Cache_Controller.SS.Load::total          122                      
system.ruby.L1Cache_Controller.SS.Store  |           0      0.00%      0.00% |           0      0.00%      0.00% |           0      0.00%      0.00% |           1     50.00%     50.00% |           1     50.00%    100.00% |           0      0.00%    100.00% |           0      0.00%    100.00%
system.ruby.L1Cache_Controller.SS.Store::total            2                      
system.ruby.L1Cache_Controller.SS.Ack    |           0      0.00%      0.00% |         487     27.41%     27.41% |         382     21.50%     48.90% |         442     24.87%     73.78% |         450     25.32%     99.10% |           0      0.00%     99.10% |          16      0.90%    100.00%
system.ruby.L1Cache_Controller.SS.Ack::total         1777                      
system.ruby.L1Cache_Controller.SS.Shared_Ack |           0      0.00%      0.00% |         119     25.27%     25.27% |         146     31.00%     56.26% |         113     23.99%     80.25% |          93     19.75%    100.00% |           0      0.00%    100.00% |           0      0.00%    100.00%
system.ruby.L1Cache_Controller.SS.Shared_Ack::total          471                      
system.ruby.L1Cache_Controller.SS.All_acks |           0      0.00%      0.00% |         389     24.65%     24.65% |         349     22.12%     46.77% |         413     26.17%     72.94% |         421     26.68%     99.62% |           0      0.00%     99.62% |           6      0.38%    100.00%
system.ruby.L1Cache_Controller.SS.All_acks::total         1578                      
system.ruby.L1Cache_Controller.MI.Writeback_Ack |           0      0.00%      0.00% |           0      0.00%      0.00% |           0      0.00%      0.00% |           0      0.00%      0.00% |           0      0.00%      0.00% |           0      0.00%      0.00% |         789    100.00%    100.00%
system.ruby.L1Cache_Controller.MI.Writeback_Ack::total          789                      
system.ruby.L1Cache_Controller.IT.Load   |           0      0.00%      0.00% |           0      0.00%      0.00% |           0      0.00%      0.00% |           2     40.00%     40.00% |           3     60.00%    100.00% |           0      0.00%    100.00% |           0      0.00%    100.00%
system.ruby.L1Cache_Controller.IT.Load::total            5                      
system.ruby.L1Cache_Controller.IT.Store  |           0      0.00%      0.00% |           0      0.00%      0.00% |          54     35.53%     35.53% |          62     40.79%     76.32% |          36     23.68%    100.00% |           0      0.00%    100.00% |           0      0.00%    100.00%
system.ruby.L1Cache_Controller.IT.Store::total          152                      
system.ruby.L1Cache_Controller.IT.Complete_L2_to_L1 |           5      0.77%      0.77% |          70     10.82%     11.59% |         137     21.17%     32.77% |         258     39.88%     72.64% |         176     27.20%     99.85% |           0      0.00%     99.85% |           1      0.15%    100.00%
system.ruby.L1Cache_Controller.IT.Complete_L2_to_L1::total          647                      
system.ruby.L1Cache_Controller.ST.Load   |           0      0.00%      0.00% |         107     46.12%     46.12% |          46     19.83%     65.95% |          47     20.26%     86.21% |          32     13.79%    100.00% |           0      0.00%    100.00% |           0      0.00%    100.00%
system.ruby.L1Cache_Controller.ST.Load::total          232                      
system.ruby.L1Cache_Controller.ST.Store  |           0      0.00%      0.00% |           0      0.00%      0.00% |           0      0.00%      0.00% |           1    100.00%    100.00% |           0      0.00%    100.00% |           0      0.00%    100.00% |           0      0.00%    100.00%
system.ruby.L1Cache_Controller.ST.Store::total            1                      
system.ruby.L1Cache_Controller.ST.Complete_L2_to_L1 |           0      0.00%      0.00% |        1304     22.75%     22.75% |        1303     22.73%     45.48% |        1547     26.99%     72.47% |        1578     27.53%    100.00% |           0      0.00%    100.00% |           0      0.00%    100.00%
system.ruby.L1Cache_Controller.ST.Complete_L2_to_L1::total         5732                      
system.ruby.L1Cache_Controller.OT.Load   |           0      0.00%      0.00% |           6      6.67%      6.67% |           4      4.44%     11.11% |          63     70.00%     81.11% |          17     18.89%    100.00% |           0      0.00%    100.00% |           0      0.00%    100.00%
system.ruby.L1Cache_Controller.OT.Load::total           90                      
system.ruby.L1Cache_Controller.OT.Store  |           0      0.00%      0.00% |           0      0.00%      0.00% |           0      0.00%      0.00% |           1    100.00%    100.00% |           0      0.00%    100.00% |           0      0.00%    100.00% |           0      0.00%    100.00%
system.ruby.L1Cache_Controller.OT.Store::total            1                      
system.ruby.L1Cache_Controller.OT.Complete_L2_to_L1 |           0      0.00%      0.00% |         330     17.48%     17.48% |         490     25.95%     43.43% |         613     32.47%     75.90% |         455     24.10%    100.00% |           0      0.00%    100.00% |           0      0.00%    100.00%
system.ruby.L1Cache_Controller.OT.Complete_L2_to_L1::total         1888                      
system.ruby.L1Cache_Controller.MT.Load   |           0      0.00%      0.00% |           2    100.00%    100.00% |           0      0.00%    100.00% |           0      0.00%    100.00% |           0      0.00%    100.00% |           0      0.00%    100.00% |           0      0.00%    100.00%
system.ruby.L1Cache_Controller.MT.Load::total            2                      
system.ruby.L1Cache_Controller.MT.Store  |           0      0.00%      0.00% |           0      0.00%      0.00% |           0      0.00%      0.00% |          14    100.00%    100.00% |           0      0.00%    100.00% |           0      0.00%    100.00% |           0      0.00%    100.00%
system.ruby.L1Cache_Controller.MT.Store::total           14                      
system.ruby.L1Cache_Controller.MT.Complete_L2_to_L1 |        1178     96.01%     96.01% |           1      0.08%     96.09% |          12      0.98%     97.07% |          36      2.93%    100.00% |           0      0.00%    100.00% |           0      0.00%    100.00% |           0      0.00%    100.00%
system.ruby.L1Cache_Controller.MT.Complete_L2_to_L1::total         1227                      
system.ruby.L1Cache_Controller.MMT.Store |           0      0.00%      0.00% |          73     25.09%     25.09% |          35     12.03%     37.11% |         119     40.89%     78.01% |          64     21.99%    100.00% |           0      0.00%    100.00% |           0      0.00%    100.00%
system.ruby.L1Cache_Controller.MMT.Store::total          291                      
system.ruby.L1Cache_Controller.MMT.Complete_L2_to_L1 |         113     25.06%     25.06% |          69     15.30%     40.35% |          72     15.96%     56.32% |         115     25.50%     81.82% |          82     18.18%    100.00% |           0      0.00%    100.00% |           0      0.00%    100.00%
system.ruby.L1Cache_Controller.MMT.Complete_L2_to_L1::total          451                      

---------- End Simulation Statistics   ----------
