
---------- Begin Simulation Statistics ----------
sim_seconds                                  0.005327                       # Number of seconds simulated
sim_ticks                                  5327051000                       # Number of ticks simulated
final_tick                                 5327051000                       # Number of ticks from beginning of simulation (restored from checkpoints and never reset)
sim_freq                                 1000000000000                       # Frequency of simulated ticks
host_inst_rate                                  19167                       # Simulator instruction rate (inst/s)
host_op_rate                                    31531                       # Simulator op (including micro ops) rate (op/s)
host_tick_rate                               61721019                       # Simulator tick rate (ticks/s)
host_mem_usage                                2443960                       # Number of bytes of host memory used
host_seconds                                    86.31                       # Real time elapsed on the host
sim_insts                                     1654237                       # Number of instructions simulated
sim_ops                                       2721411                       # Number of ops (including micro ops) simulated
system.voltage_domain.voltage                       1                       # Voltage in Volts
system.clk_domain.clock                          1000                       # Clock period in ticks
system.mem_ctrls.bytes_read::writebacks         47984                       # Number of bytes read from this memory
system.mem_ctrls.bytes_read::gpu.shader_cores0.data      2073728                       # Number of bytes read from this memory
system.mem_ctrls.bytes_read::gpu.shader_cores0.inst         1200                       # Number of bytes read from this memory
system.mem_ctrls.bytes_read::gpu.shader_cores1.data      1676544                       # Number of bytes read from this memory
system.mem_ctrls.bytes_read::gpu.shader_cores1.inst         1392                       # Number of bytes read from this memory
system.mem_ctrls.bytes_read::gpu.shader_cores2.data      1629536                       # Number of bytes read from this memory
system.mem_ctrls.bytes_read::gpu.shader_cores2.inst         1648                       # Number of bytes read from this memory
system.mem_ctrls.bytes_read::gpu.shader_cores3.data      2080544                       # Number of bytes read from this memory
system.mem_ctrls.bytes_read::gpu.shader_cores3.inst         1672                       # Number of bytes read from this memory
system.mem_ctrls.bytes_read::gpu.ce             53252                       # Number of bytes read from this memory
system.mem_ctrls.bytes_read::cpu.inst        18875136                       # Number of bytes read from this memory
system.mem_ctrls.bytes_read::cpu.data         2306952                       # Number of bytes read from this memory
system.mem_ctrls.bytes_read::total           28749588                       # Number of bytes read from this memory
system.mem_ctrls.bytes_inst_read::gpu.shader_cores0.inst         1200                       # Number of instructions bytes read from this memory
system.mem_ctrls.bytes_inst_read::gpu.shader_cores1.inst         1392                       # Number of instructions bytes read from this memory
system.mem_ctrls.bytes_inst_read::gpu.shader_cores2.inst         1648                       # Number of instructions bytes read from this memory
system.mem_ctrls.bytes_inst_read::gpu.shader_cores3.inst         1672                       # Number of instructions bytes read from this memory
system.mem_ctrls.bytes_inst_read::cpu.inst     18875136                       # Number of instructions bytes read from this memory
system.mem_ctrls.bytes_inst_read::total      18881048                       # Number of instructions bytes read from this memory
system.mem_ctrls.bytes_written::writebacks        47984                       # Number of bytes written to this memory
system.mem_ctrls.bytes_written::gpu.shader_cores0.data        34172                       # Number of bytes written to this memory
system.mem_ctrls.bytes_written::gpu.shader_cores1.data        34172                       # Number of bytes written to this memory
system.mem_ctrls.bytes_written::gpu.shader_cores2.data        64316                       # Number of bytes written to this memory
system.mem_ctrls.bytes_written::gpu.shader_cores3.data        37104                       # Number of bytes written to this memory
system.mem_ctrls.bytes_written::gpu.ce          53252                       # Number of bytes written to this memory
system.mem_ctrls.bytes_written::cpu.data      1151818                       # Number of bytes written to this memory
system.mem_ctrls.bytes_written::total         1422818                       # Number of bytes written to this memory
system.mem_ctrls.num_reads::writebacks          11996                       # Number of read requests responded to by this memory
system.mem_ctrls.num_reads::gpu.shader_cores0.data        61306                       # Number of read requests responded to by this memory
system.mem_ctrls.num_reads::gpu.shader_cores0.inst           50                       # Number of read requests responded to by this memory
system.mem_ctrls.num_reads::gpu.shader_cores1.data        48937                       # Number of read requests responded to by this memory
system.mem_ctrls.num_reads::gpu.shader_cores1.inst           58                       # Number of read requests responded to by this memory
system.mem_ctrls.num_reads::gpu.shader_cores2.data        45972                       # Number of read requests responded to by this memory
system.mem_ctrls.num_reads::gpu.shader_cores2.inst           69                       # Number of read requests responded to by this memory
system.mem_ctrls.num_reads::gpu.shader_cores3.data        60467                       # Number of read requests responded to by this memory
system.mem_ctrls.num_reads::gpu.shader_cores3.inst           70                       # Number of read requests responded to by this memory
system.mem_ctrls.num_reads::gpu.ce                424                       # Number of read requests responded to by this memory
system.mem_ctrls.num_reads::cpu.inst          2359392                       # Number of read requests responded to by this memory
system.mem_ctrls.num_reads::cpu.data           312277                       # Number of read requests responded to by this memory
system.mem_ctrls.num_reads::total             2901018                       # Number of read requests responded to by this memory
system.mem_ctrls.num_writes::writebacks         11996                       # Number of write requests responded to by this memory
system.mem_ctrls.num_writes::gpu.shader_cores0.data         2292                       # Number of write requests responded to by this memory
system.mem_ctrls.num_writes::gpu.shader_cores1.data         2402                       # Number of write requests responded to by this memory
system.mem_ctrls.num_writes::gpu.shader_cores2.data         2707                       # Number of write requests responded to by this memory
system.mem_ctrls.num_writes::gpu.shader_cores3.data         2928                       # Number of write requests responded to by this memory
system.mem_ctrls.num_writes::gpu.ce               423                       # Number of write requests responded to by this memory
system.mem_ctrls.num_writes::cpu.data          165304                       # Number of write requests responded to by this memory
system.mem_ctrls.num_writes::total             188052                       # Number of write requests responded to by this memory
system.mem_ctrls.bw_read::writebacks          9007610                       # Total read bandwidth from this memory (bytes/s)
system.mem_ctrls.bw_read::gpu.shader_cores0.data    389282551                       # Total read bandwidth from this memory (bytes/s)
system.mem_ctrls.bw_read::gpu.shader_cores0.inst       225265                       # Total read bandwidth from this memory (bytes/s)
system.mem_ctrls.bw_read::gpu.shader_cores1.data    314722724                       # Total read bandwidth from this memory (bytes/s)
system.mem_ctrls.bw_read::gpu.shader_cores1.inst       261308                       # Total read bandwidth from this memory (bytes/s)
system.mem_ctrls.bw_read::gpu.shader_cores2.data    305898329                       # Total read bandwidth from this memory (bytes/s)
system.mem_ctrls.bw_read::gpu.shader_cores2.inst       309364                       # Total read bandwidth from this memory (bytes/s)
system.mem_ctrls.bw_read::gpu.shader_cores3.data    390562058                       # Total read bandwidth from this memory (bytes/s)
system.mem_ctrls.bw_read::gpu.shader_cores3.inst       313870                       # Total read bandwidth from this memory (bytes/s)
system.mem_ctrls.bw_read::gpu.ce              9996525                       # Total read bandwidth from this memory (bytes/s)
system.mem_ctrls.bw_read::cpu.inst         3543261741                       # Total read bandwidth from this memory (bytes/s)
system.mem_ctrls.bw_read::cpu.data          433063622                       # Total read bandwidth from this memory (bytes/s)
system.mem_ctrls.bw_read::total            5396904967                       # Total read bandwidth from this memory (bytes/s)
system.mem_ctrls.bw_inst_read::gpu.shader_cores0.inst       225265                       # Instruction read bandwidth from this memory (bytes/s)
system.mem_ctrls.bw_inst_read::gpu.shader_cores1.inst       261308                       # Instruction read bandwidth from this memory (bytes/s)
system.mem_ctrls.bw_inst_read::gpu.shader_cores2.inst       309364                       # Instruction read bandwidth from this memory (bytes/s)
system.mem_ctrls.bw_inst_read::gpu.shader_cores3.inst       313870                       # Instruction read bandwidth from this memory (bytes/s)
system.mem_ctrls.bw_inst_read::cpu.inst    3543261741                       # Instruction read bandwidth from this memory (bytes/s)
system.mem_ctrls.bw_inst_read::total       3544371548                       # Instruction read bandwidth from this memory (bytes/s)
system.mem_ctrls.bw_write::writebacks         9007610                       # Write bandwidth from this memory (bytes/s)
system.mem_ctrls.bw_write::gpu.shader_cores0.data      6414806                       # Write bandwidth from this memory (bytes/s)
system.mem_ctrls.bw_write::gpu.shader_cores1.data      6414806                       # Write bandwidth from this memory (bytes/s)
system.mem_ctrls.bw_write::gpu.shader_cores2.data     12073472                       # Write bandwidth from this memory (bytes/s)
system.mem_ctrls.bw_write::gpu.shader_cores3.data      6965205                       # Write bandwidth from this memory (bytes/s)
system.mem_ctrls.bw_write::gpu.ce             9996525                       # Write bandwidth from this memory (bytes/s)
system.mem_ctrls.bw_write::cpu.data         216220569                       # Write bandwidth from this memory (bytes/s)
system.mem_ctrls.bw_write::total            267092994                       # Write bandwidth from this memory (bytes/s)
system.mem_ctrls.bw_total::writebacks        18015221                       # Total bandwidth to/from this memory (bytes/s)
system.mem_ctrls.bw_total::gpu.shader_cores0.data    395697357                       # Total bandwidth to/from this memory (bytes/s)
system.mem_ctrls.bw_total::gpu.shader_cores0.inst       225265                       # Total bandwidth to/from this memory (bytes/s)
system.mem_ctrls.bw_total::gpu.shader_cores1.data    321137530                       # Total bandwidth to/from this memory (bytes/s)
system.mem_ctrls.bw_total::gpu.shader_cores1.inst       261308                       # Total bandwidth to/from this memory (bytes/s)
system.mem_ctrls.bw_total::gpu.shader_cores2.data    317971801                       # Total bandwidth to/from this memory (bytes/s)
system.mem_ctrls.bw_total::gpu.shader_cores2.inst       309364                       # Total bandwidth to/from this memory (bytes/s)
system.mem_ctrls.bw_total::gpu.shader_cores3.data    397527262                       # Total bandwidth to/from this memory (bytes/s)
system.mem_ctrls.bw_total::gpu.shader_cores3.inst       313870                       # Total bandwidth to/from this memory (bytes/s)
system.mem_ctrls.bw_total::gpu.ce            19993051                       # Total bandwidth to/from this memory (bytes/s)
system.mem_ctrls.bw_total::cpu.inst        3543261741                       # Total bandwidth to/from this memory (bytes/s)
system.mem_ctrls.bw_total::cpu.data         649284191                       # Total bandwidth to/from this memory (bytes/s)
system.mem_ctrls.bw_total::total           5663997961                       # Total bandwidth to/from this memory (bytes/s)
system.ruby_clk_domain.clock                      500                       # Clock period in ticks
system.ruby.outstanding_req_hist::bucket_size            8                      
system.ruby.outstanding_req_hist::max_bucket           79                      
system.ruby.outstanding_req_hist::samples      3069924                      
system.ruby.outstanding_req_hist::mean       1.034467                      
system.ruby.outstanding_req_hist::gmean      1.007873                      
system.ruby.outstanding_req_hist::stdev      0.979806                      
system.ruby.outstanding_req_hist         |     3066403     99.89%     99.89% |        1497      0.05%     99.93% |         828      0.03%     99.96% |         509      0.02%     99.98% |         133      0.00%     99.98% |          55      0.00%     99.98% |          36      0.00%     99.98% |         364      0.01%    100.00% |          99      0.00%    100.00% |           0      0.00%    100.00%
system.ruby.outstanding_req_hist::total       3069924                      
system.ruby.latency_hist::bucket_size            1024                      
system.ruby.latency_hist::max_bucket            10239                      
system.ruby.latency_hist::samples             3069923                      
system.ruby.latency_hist::mean               2.826245                      
system.ruby.latency_hist::gmean              1.938020                      
system.ruby.latency_hist::stdev             39.406940                      
system.ruby.latency_hist                 |     3069316     99.98%     99.98% |         212      0.01%     99.99% |         234      0.01%     99.99% |         114      0.00%    100.00% |          43      0.00%    100.00% |           4      0.00%    100.00% |           0      0.00%    100.00% |           0      0.00%    100.00% |           0      0.00%    100.00% |           0      0.00%    100.00%
system.ruby.latency_hist::total               3069923                      
system.ruby.hit_latency_hist::bucket_size           16                      
system.ruby.hit_latency_hist::max_bucket          159                      
system.ruby.hit_latency_hist::samples         3060628                      
system.ruby.hit_latency_hist::mean           1.959947                      
system.ruby.hit_latency_hist::gmean          1.914505                      
system.ruby.hit_latency_hist::stdev          0.623912                      
system.ruby.hit_latency_hist             |     3060624    100.00%    100.00% |           1      0.00%    100.00% |           0      0.00%    100.00% |           0      0.00%    100.00% |           1      0.00%    100.00% |           0      0.00%    100.00% |           2      0.00%    100.00% |           0      0.00%    100.00% |           0      0.00%    100.00% |           0      0.00%    100.00%
system.ruby.hit_latency_hist::total           3060628                      
system.ruby.miss_latency_hist::bucket_size         1024                      
system.ruby.miss_latency_hist::max_bucket        10239                      
system.ruby.miss_latency_hist::samples           9295                      
system.ruby.miss_latency_hist::mean        288.078322                      
system.ruby.miss_latency_hist::gmean       107.931594                      
system.ruby.miss_latency_hist::stdev       656.651606                      
system.ruby.miss_latency_hist            |        8688     93.47%     93.47% |         212      2.28%     95.75% |         234      2.52%     98.27% |         114      1.23%     99.49% |          43      0.46%     99.96% |           4      0.04%    100.00% |           0      0.00%    100.00% |           0      0.00%    100.00% |           0      0.00%    100.00% |           0      0.00%    100.00%
system.ruby.miss_latency_hist::total             9295                      
system.ruby.L1Cache.incomplete_times              157                      
system.ruby.l1_cntrl_ce.L1Dcache.demand_hits            0                       # Number of cache demand hits
system.ruby.l1_cntrl_ce.L1Dcache.demand_misses          847                       # Number of cache demand misses
system.ruby.l1_cntrl_ce.L1Dcache.demand_accesses          847                       # Number of cache demand accesses
system.ruby.l1_cntrl_ce.L1Icache.demand_hits            0                       # Number of cache demand hits
system.ruby.l1_cntrl_ce.L1Icache.demand_misses            0                       # Number of cache demand misses
system.ruby.l1_cntrl_ce.L1Icache.demand_accesses            0                       # Number of cache demand accesses
system.ruby.l1_cntrl_ce.L2cache.demand_hits            0                       # Number of cache demand hits
system.ruby.l1_cntrl_ce.L2cache.demand_misses          847                       # Number of cache demand misses
system.ruby.l1_cntrl_ce.L2cache.demand_accesses          847                       # Number of cache demand accesses
system.ruby.l1_cntrl0.L1Dcache.demand_hits       475887                       # Number of cache demand hits
system.ruby.l1_cntrl0.L1Dcache.demand_misses         1694                       # Number of cache demand misses
system.ruby.l1_cntrl0.L1Dcache.demand_accesses       477581                       # Number of cache demand accesses
system.ruby.l1_cntrl0.L1Icache.demand_hits      2358301                       # Number of cache demand hits
system.ruby.l1_cntrl0.L1Icache.demand_misses         1091                       # Number of cache demand misses
system.ruby.l1_cntrl0.L1Icache.demand_accesses      2359392                       # Number of cache demand accesses
system.ruby.l1_cntrl0.L2cache.demand_hits         1190                       # Number of cache demand hits
system.ruby.l1_cntrl0.L2cache.demand_misses         1595                       # Number of cache demand misses
system.ruby.l1_cntrl0.L2cache.demand_accesses         2785                       # Number of cache demand accesses
system.ruby.network.routers0.percent_links_utilized     0.140171                      
system.ruby.network.routers0.msg_count.Request_Control::2         1595                      
system.ruby.network.routers0.msg_count.Request_Control::3            2                      
system.ruby.network.routers0.msg_count.Response_Data::4         1894                      
system.ruby.network.routers0.msg_count.Response_Control::4        16804                      
system.ruby.network.routers0.msg_count.Broadcast_Control::3         7543                      
system.ruby.network.routers0.msg_count.Unblock_Control::5         1594                      
system.ruby.network.routers0.msg_bytes.Request_Control::2        12760                      
system.ruby.network.routers0.msg_bytes.Request_Control::3           16                      
system.ruby.network.routers0.msg_bytes.Response_Data::4       257584                      
system.ruby.network.routers0.msg_bytes.Response_Control::4       134432                      
system.ruby.network.routers0.msg_bytes.Broadcast_Control::3        60344                      
system.ruby.network.routers0.msg_bytes.Unblock_Control::5        12752                      
system.ruby.dir_cntrl0.memBuffer.clk_domain.clock         2500                       # Clock period in ticks
system.ruby.dir_cntrl0.memBuffer.memReq          4013                       # Total number of memory requests
system.ruby.dir_cntrl0.memBuffer.memRead         3223                       # Number of memory reads
system.ruby.dir_cntrl0.memBuffer.memWrite          790                       # Number of memory writes
system.ruby.dir_cntrl0.memBuffer.memRefresh        12411                       # Number of memory refreshes
system.ruby.dir_cntrl0.memBuffer.memWaitCycles        54395                       # Delay stalled at the head of the bank queue
system.ruby.dir_cntrl0.memBuffer.memInputQ        25654                       # Delay in the input queue
system.ruby.dir_cntrl0.memBuffer.memBankQ       203810                       # Delay behind the head of the bank queue
system.ruby.dir_cntrl0.memBuffer.totalStalls       283859                       # Total number of stall cycles
system.ruby.dir_cntrl0.memBuffer.stallsPerReq    70.734862                       # Expected number of stall cycles per request
system.ruby.dir_cntrl0.memBuffer.memBankBusy        11424                       # memory stalls due to busy bank
system.ruby.dir_cntrl0.memBuffer.memBusBusy        15004                       # memory stalls due to busy bus
system.ruby.dir_cntrl0.memBuffer.memReadWriteBusy         1119                       # memory stalls due to read write turnaround
system.ruby.dir_cntrl0.memBuffer.memDataBusBusy         4035                       # memory stalls due to read read turnaround
system.ruby.dir_cntrl0.memBuffer.memArbWait        10047                       # memory stalls due to arbitration
system.ruby.dir_cntrl0.memBuffer.memNotOld        12766                       # memory stalls due to anti starvation
system.ruby.dir_cntrl0.memBuffer.memBankCount |         127      3.16%      3.16% |         116      2.89%      6.06% |         135      3.36%      9.42% |         141      3.51%     12.93% |         137      3.41%     16.35% |         139      3.46%     19.81% |         134      3.34%     23.15% |         129      3.21%     26.36% |         127      3.16%     29.53% |         126      3.14%     32.67% |         128      3.19%     35.86% |         140      3.49%     39.35% |         132      3.29%     42.64% |         136      3.39%     46.03% |         148      3.69%     49.71% |         161      4.01%     53.73% |         155      3.86%     57.59% |         129      3.21%     60.80% |         115      2.87%     63.67% |         113      2.82%     66.48% |         116      2.89%     69.37% |         117      2.92%     72.29% |         110      2.74%     75.03% |         105      2.62%     77.65% |         108      2.69%     80.34% |         110      2.74%     83.08% |         111      2.77%     85.85% |         116      2.89%     88.74% |         110      2.74%     91.48% |         114      2.84%     94.32% |         111      2.77%     97.08% |         117      2.92%    100.00% # Number of accesses per bank
system.ruby.dir_cntrl0.memBuffer.memBankCount::total         4013                       # Number of accesses per bank
system.ruby.dir_cntrl0.probeFilter.demand_hits            0                       # Number of cache demand hits
system.ruby.dir_cntrl0.probeFilter.demand_misses            0                       # Number of cache demand misses
system.ruby.dir_cntrl0.probeFilter.demand_accesses            0                       # Number of cache demand accesses
system.ruby.dir_cntrl0.fully_busy_cycles           10                       # cycles for which number of transistions == max transitions
system.ruby.network.routers1.percent_links_utilized     0.229130                      
system.ruby.network.routers1.msg_count.Request_Control::2         9295                      
system.ruby.network.routers1.msg_count.Request_Control::3          119                      
system.ruby.network.routers1.msg_count.Response_Data::4         3223                      
system.ruby.network.routers1.msg_count.Writeback_Data::5          790                      
system.ruby.network.routers1.msg_count.Writeback_Control::2          790                      
system.ruby.network.routers1.msg_count.Writeback_Control::3          790                      
system.ruby.network.routers1.msg_count.Broadcast_Control::3         9138                      
system.ruby.network.routers1.msg_count.Unblock_Control::5         9294                      
system.ruby.network.routers1.msg_bytes.Request_Control::2        74360                      
system.ruby.network.routers1.msg_bytes.Request_Control::3          952                      
system.ruby.network.routers1.msg_bytes.Response_Data::4       438328                      
system.ruby.network.routers1.msg_bytes.Writeback_Data::5       107440                      
system.ruby.network.routers1.msg_bytes.Writeback_Control::2         6320                      
system.ruby.network.routers1.msg_bytes.Writeback_Control::3         6320                      
system.ruby.network.routers1.msg_bytes.Broadcast_Control::3        73104                      
system.ruby.network.routers1.msg_bytes.Unblock_Control::5        74352                      
system.ruby.l1_cntrl_sp00.L1Dcache.demand_hits        61045                       # Number of cache demand hits
system.ruby.l1_cntrl_sp00.L1Dcache.demand_misses         3084                       # Number of cache demand misses
system.ruby.l1_cntrl_sp00.L1Dcache.demand_accesses        64129                       # Number of cache demand accesses
system.ruby.l1_cntrl_sp00.L1Icache.demand_hits            0                       # Number of cache demand hits
system.ruby.l1_cntrl_sp00.L1Icache.demand_misses           50                       # Number of cache demand misses
system.ruby.l1_cntrl_sp00.L1Icache.demand_accesses           50                       # Number of cache demand accesses
system.ruby.l1_cntrl_sp00.L2cache.demand_hits         1799                       # Number of cache demand hits
system.ruby.l1_cntrl_sp00.L2cache.demand_misses         1335                       # Number of cache demand misses
system.ruby.l1_cntrl_sp00.L2cache.demand_accesses         3134                       # Number of cache demand accesses
system.ruby.network.routers2.percent_links_utilized     0.143759                      
system.ruby.network.routers2.msg_count.Request_Control::2         1335                      
system.ruby.network.routers2.msg_count.Request_Control::3           28                      
system.ruby.network.routers2.msg_count.Response_Data::4         2173                      
system.ruby.network.routers2.msg_count.Response_Control::4        13798                      
system.ruby.network.routers2.msg_count.Broadcast_Control::3         7828                      
system.ruby.network.routers2.msg_count.Unblock_Control::5         1335                      
system.ruby.network.routers2.msg_bytes.Request_Control::2        10680                      
system.ruby.network.routers2.msg_bytes.Request_Control::3          224                      
system.ruby.network.routers2.msg_bytes.Response_Data::4       295528                      
system.ruby.network.routers2.msg_bytes.Response_Control::4       110384                      
system.ruby.network.routers2.msg_bytes.Broadcast_Control::3        62624                      
system.ruby.network.routers2.msg_bytes.Unblock_Control::5        10680                      
system.ruby.l1_cntrl_sp01.L1Dcache.demand_hits        48627                       # Number of cache demand hits
system.ruby.l1_cntrl_sp01.L1Dcache.demand_misses         3243                       # Number of cache demand misses
system.ruby.l1_cntrl_sp01.L1Dcache.demand_accesses        51870                       # Number of cache demand accesses
system.ruby.l1_cntrl_sp01.L1Icache.demand_hits            0                       # Number of cache demand hits
system.ruby.l1_cntrl_sp01.L1Icache.demand_misses           58                       # Number of cache demand misses
system.ruby.l1_cntrl_sp01.L1Icache.demand_accesses           58                       # Number of cache demand accesses
system.ruby.l1_cntrl_sp01.L2cache.demand_hits         1940                       # Number of cache demand hits
system.ruby.l1_cntrl_sp01.L2cache.demand_misses         1361                       # Number of cache demand misses
system.ruby.l1_cntrl_sp01.L2cache.demand_accesses         3301                       # Number of cache demand accesses
system.ruby.network.routers3.percent_links_utilized     0.155841                      
system.ruby.network.routers3.msg_count.Request_Control::2         1361                      
system.ruby.network.routers3.msg_count.Request_Control::3           25                      
system.ruby.network.routers3.msg_count.Response_Data::4         2483                      
system.ruby.network.routers3.msg_count.Response_Control::4        13660                      
system.ruby.network.routers3.msg_count.Broadcast_Control::3         7796                      
system.ruby.network.routers3.msg_count.Unblock_Control::5         1361                      
system.ruby.network.routers3.msg_bytes.Request_Control::2        10888                      
system.ruby.network.routers3.msg_bytes.Request_Control::3          200                      
system.ruby.network.routers3.msg_bytes.Response_Data::4       337688                      
system.ruby.network.routers3.msg_bytes.Response_Control::4       109280                      
system.ruby.network.routers3.msg_bytes.Broadcast_Control::3        62368                      
system.ruby.network.routers3.msg_bytes.Unblock_Control::5        10888                      
system.ruby.l1_cntrl_sp02.L1Dcache.demand_hits        46175                       # Number of cache demand hits
system.ruby.l1_cntrl_sp02.L1Dcache.demand_misses         4457                       # Number of cache demand misses
system.ruby.l1_cntrl_sp02.L1Dcache.demand_accesses        50632                       # Number of cache demand accesses
system.ruby.l1_cntrl_sp02.L1Icache.demand_hits            0                       # Number of cache demand hits
system.ruby.l1_cntrl_sp02.L1Icache.demand_misses           69                       # Number of cache demand misses
system.ruby.l1_cntrl_sp02.L1Icache.demand_accesses           69                       # Number of cache demand accesses
system.ruby.l1_cntrl_sp02.L2cache.demand_hits         2302                       # Number of cache demand hits
system.ruby.l1_cntrl_sp02.L2cache.demand_misses         2224                       # Number of cache demand misses
system.ruby.l1_cntrl_sp02.L2cache.demand_accesses         4526                       # Number of cache demand accesses
system.ruby.network.routers4.percent_links_utilized     0.223046                      
system.ruby.network.routers4.msg_count.Request_Control::2         2224                      
system.ruby.network.routers4.msg_count.Request_Control::3           23                      
system.ruby.network.routers4.msg_count.Response_Data::4         3944                      
system.ruby.network.routers4.msg_count.Response_Control::4        16558                      
system.ruby.network.routers4.msg_count.Broadcast_Control::3         6977                      
system.ruby.network.routers4.msg_count.Unblock_Control::5         2224                      
system.ruby.network.routers4.msg_bytes.Request_Control::2        17792                      
system.ruby.network.routers4.msg_bytes.Request_Control::3          184                      
system.ruby.network.routers4.msg_bytes.Response_Data::4       536384                      
system.ruby.network.routers4.msg_bytes.Response_Control::4       132464                      
system.ruby.network.routers4.msg_bytes.Broadcast_Control::3        55816                      
system.ruby.network.routers4.msg_bytes.Unblock_Control::5        17792                      
system.ruby.l1_cntrl_sp03.L1Dcache.demand_hits        61279                       # Number of cache demand hits
system.ruby.l1_cntrl_sp03.L1Dcache.demand_misses         3946                       # Number of cache demand misses
system.ruby.l1_cntrl_sp03.L1Dcache.demand_accesses        65225                       # Number of cache demand accesses
system.ruby.l1_cntrl_sp03.L1Icache.demand_hits            0                       # Number of cache demand hits
system.ruby.l1_cntrl_sp03.L1Icache.demand_misses           70                       # Number of cache demand misses
system.ruby.l1_cntrl_sp03.L1Icache.demand_accesses           70                       # Number of cache demand accesses
system.ruby.l1_cntrl_sp03.L2cache.demand_hits         2083                       # Number of cache demand hits
system.ruby.l1_cntrl_sp03.L2cache.demand_misses         1933                       # Number of cache demand misses
system.ruby.l1_cntrl_sp03.L2cache.demand_accesses         4016                       # Number of cache demand accesses
system.ruby.network.routers5.percent_links_utilized     0.206327                      
system.ruby.network.routers5.msg_count.Request_Control::2         1933                      
system.ruby.network.routers5.msg_count.Request_Control::3           41                      
system.ruby.network.routers5.msg_count.Response_Data::4         3615                      
system.ruby.network.routers5.msg_count.Response_Control::4        15312                      
system.ruby.network.routers5.msg_count.Broadcast_Control::3         7255                      
system.ruby.network.routers5.msg_count.Unblock_Control::5         1933                      
system.ruby.network.routers5.msg_bytes.Request_Control::2        15464                      
system.ruby.network.routers5.msg_bytes.Request_Control::3          328                      
system.ruby.network.routers5.msg_bytes.Response_Data::4       491640                      
system.ruby.network.routers5.msg_bytes.Response_Control::4       122496                      
system.ruby.network.routers5.msg_bytes.Broadcast_Control::3        58040                      
system.ruby.network.routers5.msg_bytes.Unblock_Control::5        15464                      
system.ruby.l1_pw_cntrl.L1Dcache.demand_hits            0                       # Number of cache demand hits
system.ruby.l1_pw_cntrl.L1Dcache.demand_misses            0                       # Number of cache demand misses
system.ruby.l1_pw_cntrl.L1Dcache.demand_accesses            0                       # Number of cache demand accesses
system.ruby.l1_pw_cntrl.L1Icache.demand_hits            0                       # Number of cache demand hits
system.ruby.l1_pw_cntrl.L1Icache.demand_misses            0                       # Number of cache demand misses
system.ruby.l1_pw_cntrl.L1Icache.demand_accesses            0                       # Number of cache demand accesses
system.ruby.l1_pw_cntrl.L2cache.demand_hits            0                       # Number of cache demand hits
system.ruby.l1_pw_cntrl.L2cache.demand_misses            0                       # Number of cache demand misses
system.ruby.l1_pw_cntrl.L2cache.demand_accesses            0                       # Number of cache demand accesses
system.ruby.network.routers6.percent_links_utilized     0.042885                      
system.ruby.network.routers6.msg_count.Response_Control::4         9138                      
system.ruby.network.routers6.msg_count.Broadcast_Control::3         9138                      
system.ruby.network.routers6.msg_bytes.Response_Control::4        73104                      
system.ruby.network.routers6.msg_bytes.Broadcast_Control::3        73104                      
system.ruby.network.routers7.percent_links_utilized     0.123865                      
system.ruby.network.routers7.msg_count.Request_Control::2          847                      
system.ruby.network.routers7.msg_count.Response_Data::4          876                      
system.ruby.network.routers7.msg_count.Response_Control::4        12900                      
system.ruby.network.routers7.msg_count.Writeback_Data::5          790                      
system.ruby.network.routers7.msg_count.Writeback_Control::2          790                      
system.ruby.network.routers7.msg_count.Writeback_Control::3          790                      
system.ruby.network.routers7.msg_count.Broadcast_Control::3         8291                      
system.ruby.network.routers7.msg_count.Unblock_Control::5          847                      
system.ruby.network.routers7.msg_bytes.Request_Control::2         6776                      
system.ruby.network.routers7.msg_bytes.Response_Data::4       119136                      
system.ruby.network.routers7.msg_bytes.Response_Control::4       103200                      
system.ruby.network.routers7.msg_bytes.Writeback_Data::5       107440                      
system.ruby.network.routers7.msg_bytes.Writeback_Control::2         6320                      
system.ruby.network.routers7.msg_bytes.Writeback_Control::3         6320                      
system.ruby.network.routers7.msg_bytes.Broadcast_Control::3        66328                      
system.ruby.network.routers7.msg_bytes.Unblock_Control::5         6776                      
system.ruby.network.routers8.percent_links_utilized     0.171719                      
system.ruby.network.routers8.msg_count.Request_Control::2         9295                      
system.ruby.network.routers8.msg_count.Request_Control::3          119                      
system.ruby.network.routers8.msg_count.Response_Data::4         9123                      
system.ruby.network.routers8.msg_count.Response_Control::4        49085                      
system.ruby.network.routers8.msg_count.Writeback_Data::5          790                      
system.ruby.network.routers8.msg_count.Writeback_Control::2          790                      
system.ruby.network.routers8.msg_count.Writeback_Control::3          790                      
system.ruby.network.routers8.msg_count.Broadcast_Control::3        54828                      
system.ruby.network.routers8.msg_count.Unblock_Control::5         9294                      
system.ruby.network.routers8.msg_bytes.Request_Control::2        74360                      
system.ruby.network.routers8.msg_bytes.Request_Control::3          952                      
system.ruby.network.routers8.msg_bytes.Response_Data::4      1240728                      
system.ruby.network.routers8.msg_bytes.Response_Control::4       392680                      
system.ruby.network.routers8.msg_bytes.Writeback_Data::5       107440                      
system.ruby.network.routers8.msg_bytes.Writeback_Control::2         6320                      
system.ruby.network.routers8.msg_bytes.Writeback_Control::3         6320                      
system.ruby.network.routers8.msg_bytes.Broadcast_Control::3       438624                      
system.ruby.network.routers8.msg_bytes.Unblock_Control::5        74352                      
system.ruby.network.msg_count.Request_Control        28242                      
system.ruby.network.msg_count.Response_Data        27331                      
system.ruby.network.msg_count.Response_Control       147255                      
system.ruby.network.msg_count.Writeback_Data         2370                      
system.ruby.network.msg_count.Writeback_Control         4740                      
system.ruby.network.msg_count.Broadcast_Control       118794                      
system.ruby.network.msg_count.Unblock_Control        27882                      
system.ruby.network.msg_byte.Request_Control       225936                      
system.ruby.network.msg_byte.Response_Data      3717016                      
system.ruby.network.msg_byte.Response_Control      1178040                      
system.ruby.network.msg_byte.Writeback_Data       322320                      
system.ruby.network.msg_byte.Writeback_Control        37920                      
system.ruby.network.msg_byte.Broadcast_Control       950352                      
system.ruby.network.msg_byte.Unblock_Control       223056                      
system.ruby.memctrl_clk_domain.clock             1500                       # Clock period in ticks
system.cpu_voltage_domain.voltage                   1                       # Voltage in Volts
system.gpu.clk_domain.voltage_domain.voltage            1                       # Voltage in Volts
system.gpu.clk_domain.clock                      1429                       # Clock period in ticks
system.gpu.dram_wrapper.clk_domain.clock          541                       # Clock period in ticks
system.gpu.icnt_wrapper.clk_domain.clock         2858                       # Clock period in ticks
system.gpu.shader_mmu.numPagefaults                 0                       # Number of Pagefaults
system.gpu.shader_mmu.numPagewalks                 28                       # Number of Pagewalks
system.gpu.shader_mmu.totalRequests                28                       # Total number of requests
system.gpu.shader_mmu.retryFailures                 0                       # Times the retry walk after a pagefault failed
system.gpu.shader_mmu.l2hits                        0                       # Hits in the shared L2
system.gpu.shader_mmu.prefetchHits                  0                       # Number of prefetch hits
system.gpu.shader_mmu.numPrefetches                 0                       # Number of prefetchs
system.gpu.shader_mmu.prefetchFaults                0                       # Number of faults caused by prefetches
system.gpu.shader_mmu.pagefaultLatency::samples            0                       # Latency to complete the pagefault
system.gpu.shader_mmu.pagefaultLatency::mean          nan                       # Latency to complete the pagefault
system.gpu.shader_mmu.pagefaultLatency::gmean          nan                       # Latency to complete the pagefault
system.gpu.shader_mmu.pagefaultLatency::stdev          nan                       # Latency to complete the pagefault
system.gpu.shader_mmu.pagefaultLatency::0            0                       # Latency to complete the pagefault
system.gpu.shader_mmu.pagefaultLatency::1            0                       # Latency to complete the pagefault
system.gpu.shader_mmu.pagefaultLatency::2            0                       # Latency to complete the pagefault
system.gpu.shader_mmu.pagefaultLatency::3            0                       # Latency to complete the pagefault
system.gpu.shader_mmu.pagefaultLatency::4            0                       # Latency to complete the pagefault
system.gpu.shader_mmu.pagefaultLatency::5            0                       # Latency to complete the pagefault
system.gpu.shader_mmu.pagefaultLatency::6            0                       # Latency to complete the pagefault
system.gpu.shader_mmu.pagefaultLatency::7            0                       # Latency to complete the pagefault
system.gpu.shader_mmu.pagefaultLatency::8            0                       # Latency to complete the pagefault
system.gpu.shader_mmu.pagefaultLatency::9            0                       # Latency to complete the pagefault
system.gpu.shader_mmu.pagefaultLatency::10            0                       # Latency to complete the pagefault
system.gpu.shader_mmu.pagefaultLatency::11            0                       # Latency to complete the pagefault
system.gpu.shader_mmu.pagefaultLatency::12            0                       # Latency to complete the pagefault
system.gpu.shader_mmu.pagefaultLatency::13            0                       # Latency to complete the pagefault
system.gpu.shader_mmu.pagefaultLatency::14            0                       # Latency to complete the pagefault
system.gpu.shader_mmu.pagefaultLatency::15            0                       # Latency to complete the pagefault
system.gpu.shader_mmu.pagefaultLatency::16            0                       # Latency to complete the pagefault
system.gpu.shader_mmu.pagefaultLatency::17            0                       # Latency to complete the pagefault
system.gpu.shader_mmu.pagefaultLatency::18            0                       # Latency to complete the pagefault
system.gpu.shader_mmu.pagefaultLatency::19            0                       # Latency to complete the pagefault
system.gpu.shader_mmu.pagefaultLatency::20            0                       # Latency to complete the pagefault
system.gpu.shader_mmu.pagefaultLatency::21            0                       # Latency to complete the pagefault
system.gpu.shader_mmu.pagefaultLatency::22            0                       # Latency to complete the pagefault
system.gpu.shader_mmu.pagefaultLatency::23            0                       # Latency to complete the pagefault
system.gpu.shader_mmu.pagefaultLatency::24            0                       # Latency to complete the pagefault
system.gpu.shader_mmu.pagefaultLatency::25            0                       # Latency to complete the pagefault
system.gpu.shader_mmu.pagefaultLatency::26            0                       # Latency to complete the pagefault
system.gpu.shader_mmu.pagefaultLatency::27            0                       # Latency to complete the pagefault
system.gpu.shader_mmu.pagefaultLatency::28            0                       # Latency to complete the pagefault
system.gpu.shader_mmu.pagefaultLatency::29            0                       # Latency to complete the pagefault
system.gpu.shader_mmu.pagefaultLatency::30            0                       # Latency to complete the pagefault
system.gpu.shader_mmu.pagefaultLatency::31            0                       # Latency to complete the pagefault
system.gpu.shader_mmu.pagefaultLatency::total            0                       # Latency to complete the pagefault
system.gpu.shader_mmu.concurrentWalks::samples           28                       # Number of outstanding walks
system.gpu.shader_mmu.concurrentWalks::mean            0                       # Number of outstanding walks
system.gpu.shader_mmu.concurrentWalks::gmean            0                       # Number of outstanding walks
system.gpu.shader_mmu.concurrentWalks::stdev            0                       # Number of outstanding walks
system.gpu.shader_mmu.concurrentWalks::0           28    100.00%    100.00% # Number of outstanding walks
system.gpu.shader_mmu.concurrentWalks::1            0      0.00%    100.00% # Number of outstanding walks
system.gpu.shader_mmu.concurrentWalks::2            0      0.00%    100.00% # Number of outstanding walks
system.gpu.shader_mmu.concurrentWalks::3            0      0.00%    100.00% # Number of outstanding walks
system.gpu.shader_mmu.concurrentWalks::4            0      0.00%    100.00% # Number of outstanding walks
system.gpu.shader_mmu.concurrentWalks::5            0      0.00%    100.00% # Number of outstanding walks
system.gpu.shader_mmu.concurrentWalks::6            0      0.00%    100.00% # Number of outstanding walks
system.gpu.shader_mmu.concurrentWalks::7            0      0.00%    100.00% # Number of outstanding walks
system.gpu.shader_mmu.concurrentWalks::8            0      0.00%    100.00% # Number of outstanding walks
system.gpu.shader_mmu.concurrentWalks::9            0      0.00%    100.00% # Number of outstanding walks
system.gpu.shader_mmu.concurrentWalks::10            0      0.00%    100.00% # Number of outstanding walks
system.gpu.shader_mmu.concurrentWalks::11            0      0.00%    100.00% # Number of outstanding walks
system.gpu.shader_mmu.concurrentWalks::12            0      0.00%    100.00% # Number of outstanding walks
system.gpu.shader_mmu.concurrentWalks::13            0      0.00%    100.00% # Number of outstanding walks
system.gpu.shader_mmu.concurrentWalks::14            0      0.00%    100.00% # Number of outstanding walks
system.gpu.shader_mmu.concurrentWalks::15            0      0.00%    100.00% # Number of outstanding walks
system.gpu.shader_mmu.concurrentWalks::total           28                       # Number of outstanding walks
system.gpu.shader_mmu.pagewalkLatency::samples           28                       # Latency to complete the pagewalk
system.gpu.shader_mmu.pagewalkLatency::mean            0                       # Latency to complete the pagewalk
system.gpu.shader_mmu.pagewalkLatency::gmean            0                       # Latency to complete the pagewalk
system.gpu.shader_mmu.pagewalkLatency::stdev            0                       # Latency to complete the pagewalk
system.gpu.shader_mmu.pagewalkLatency::0           28    100.00%    100.00% # Latency to complete the pagewalk
system.gpu.shader_mmu.pagewalkLatency::1            0      0.00%    100.00% # Latency to complete the pagewalk
system.gpu.shader_mmu.pagewalkLatency::2            0      0.00%    100.00% # Latency to complete the pagewalk
system.gpu.shader_mmu.pagewalkLatency::3            0      0.00%    100.00% # Latency to complete the pagewalk
system.gpu.shader_mmu.pagewalkLatency::4            0      0.00%    100.00% # Latency to complete the pagewalk
system.gpu.shader_mmu.pagewalkLatency::5            0      0.00%    100.00% # Latency to complete the pagewalk
system.gpu.shader_mmu.pagewalkLatency::6            0      0.00%    100.00% # Latency to complete the pagewalk
system.gpu.shader_mmu.pagewalkLatency::7            0      0.00%    100.00% # Latency to complete the pagewalk
system.gpu.shader_mmu.pagewalkLatency::8            0      0.00%    100.00% # Latency to complete the pagewalk
system.gpu.shader_mmu.pagewalkLatency::9            0      0.00%    100.00% # Latency to complete the pagewalk
system.gpu.shader_mmu.pagewalkLatency::10            0      0.00%    100.00% # Latency to complete the pagewalk
system.gpu.shader_mmu.pagewalkLatency::11            0      0.00%    100.00% # Latency to complete the pagewalk
system.gpu.shader_mmu.pagewalkLatency::12            0      0.00%    100.00% # Latency to complete the pagewalk
system.gpu.shader_mmu.pagewalkLatency::13            0      0.00%    100.00% # Latency to complete the pagewalk
system.gpu.shader_mmu.pagewalkLatency::14            0      0.00%    100.00% # Latency to complete the pagewalk
system.gpu.shader_mmu.pagewalkLatency::15            0      0.00%    100.00% # Latency to complete the pagewalk
system.gpu.shader_mmu.pagewalkLatency::16            0      0.00%    100.00% # Latency to complete the pagewalk
system.gpu.shader_mmu.pagewalkLatency::17            0      0.00%    100.00% # Latency to complete the pagewalk
system.gpu.shader_mmu.pagewalkLatency::18            0      0.00%    100.00% # Latency to complete the pagewalk
system.gpu.shader_mmu.pagewalkLatency::19            0      0.00%    100.00% # Latency to complete the pagewalk
system.gpu.shader_mmu.pagewalkLatency::20            0      0.00%    100.00% # Latency to complete the pagewalk
system.gpu.shader_mmu.pagewalkLatency::21            0      0.00%    100.00% # Latency to complete the pagewalk
system.gpu.shader_mmu.pagewalkLatency::22            0      0.00%    100.00% # Latency to complete the pagewalk
system.gpu.shader_mmu.pagewalkLatency::23            0      0.00%    100.00% # Latency to complete the pagewalk
system.gpu.shader_mmu.pagewalkLatency::24            0      0.00%    100.00% # Latency to complete the pagewalk
system.gpu.shader_mmu.pagewalkLatency::25            0      0.00%    100.00% # Latency to complete the pagewalk
system.gpu.shader_mmu.pagewalkLatency::26            0      0.00%    100.00% # Latency to complete the pagewalk
system.gpu.shader_mmu.pagewalkLatency::27            0      0.00%    100.00% # Latency to complete the pagewalk
system.gpu.shader_mmu.pagewalkLatency::28            0      0.00%    100.00% # Latency to complete the pagewalk
system.gpu.shader_mmu.pagewalkLatency::29            0      0.00%    100.00% # Latency to complete the pagewalk
system.gpu.shader_mmu.pagewalkLatency::30            0      0.00%    100.00% # Latency to complete the pagewalk
system.gpu.shader_mmu.pagewalkLatency::31            0      0.00%    100.00% # Latency to complete the pagewalk
system.gpu.shader_mmu.pagewalkLatency::total           28                       # Latency to complete the pagewalk
system.gpu.kernels_started                          9                       # Number of kernels started
system.gpu.kernels_completed                        9                       # Number of kernels completed
system.gpu.shader_cores0.itb.hits                   0                       # Number of hits in this TLB
system.gpu.shader_cores0.itb.misses                 0                       # Number of misses in this TLB
system.gpu.shader_cores0.itb.hitRate              nan                       # Hit rate for this TLB
system.gpu.shader_cores0.local_loads                0                       # Number of loads from local space
system.gpu.shader_cores0.local_stores               0                       # Number of stores to local space
system.gpu.shader_cores0.shared_loads          363417                       # Number of loads from shared space
system.gpu.shader_cores0.shared_stores          28483                       # Number of stores to shared space
system.gpu.shader_cores0.param_kernel_loads       744514                       # Number of loads from kernel parameter space
system.gpu.shader_cores0.param_local_loads            0                       # Number of loads from local parameter space
system.gpu.shader_cores0.param_local_stores            0                       # Number of stores to local parameter space
system.gpu.shader_cores0.const_loads                0                       # Number of loads from constant space
system.gpu.shader_cores0.tex_loads                  0                       # Number of loads from texture space
system.gpu.shader_cores0.global_loads         1834737                       # Number of loads from global space
system.gpu.shader_cores0.global_stores           8543                       # Number of stores to global space
system.gpu.shader_cores0.surf_loads                 0                       # Number of loads from surface space
system.gpu.shader_cores0.generic_loads              0                       # Number of loads from generic spaces (global, shared, local)
system.gpu.shader_cores0.generic_stores             0                       # Number of stores to generic spaces (global, shared, local)
system.gpu.shader_cores0.inst_cache_requests           50                       # Number of instruction cache requests sent
system.gpu.shader_cores0.inst_cache_retries            0                       # Number of instruction cache retries
system.gpu.shader_cores0.inst_counts::0             0                       # Inst counts: 1: ALU, 2: MAD, 3: CTRL, 4: SFU, 5: MEM, 6: TEX, 7: NOP
system.gpu.shader_cores0.inst_counts::1      11410652                       # Inst counts: 1: ALU, 2: MAD, 3: CTRL, 4: SFU, 5: MEM, 6: TEX, 7: NOP
system.gpu.shader_cores0.inst_counts::2       1826592                       # Inst counts: 1: ALU, 2: MAD, 3: CTRL, 4: SFU, 5: MEM, 6: TEX, 7: NOP
system.gpu.shader_cores0.inst_counts::3       1638470                       # Inst counts: 1: ALU, 2: MAD, 3: CTRL, 4: SFU, 5: MEM, 6: TEX, 7: NOP
system.gpu.shader_cores0.inst_counts::4        247872                       # Inst counts: 1: ALU, 2: MAD, 3: CTRL, 4: SFU, 5: MEM, 6: TEX, 7: NOP
system.gpu.shader_cores0.inst_counts::5       2979694                       # Inst counts: 1: ALU, 2: MAD, 3: CTRL, 4: SFU, 5: MEM, 6: TEX, 7: NOP
system.gpu.shader_cores0.inst_counts::6             0                       # Inst counts: 1: ALU, 2: MAD, 3: CTRL, 4: SFU, 5: MEM, 6: TEX, 7: NOP
system.gpu.shader_cores0.inst_counts::7             0                       # Inst counts: 1: ALU, 2: MAD, 3: CTRL, 4: SFU, 5: MEM, 6: TEX, 7: NOP
system.gpu.shader_cores0.activeCycles          598252                       # Number of cycles this shader was executing a CTA
system.gpu.shader_cores0.notStalledCycles       449548                       # Number of cycles this shader was actually executing at least one instance
system.gpu.shader_cores0.instInstances       18103280                       # Total instructions executed by all PEs in the core
system.gpu.shader_cores0.instPerCycle       30.260292                       # Instruction instances per cycle
system.gpu.shader_cores0.kernels_completed            8                       # Number of kernels completed
system.gpu.shader_cores0.lsq.data_tlb.hits            0                       # Number of hits in this TLB
system.gpu.shader_cores0.lsq.data_tlb.misses            0                       # Number of misses in this TLB
system.gpu.shader_cores0.lsq.data_tlb.hitRate          nan                       # Hit rate for this TLB
system.gpu.shader_cores0.lsq.warpInstBufActive::samples   1715944008                       # Histogram of number of active warp inst buffers at a given time
system.gpu.shader_cores0.lsq.warpInstBufActive::mean     0.812605                       # Histogram of number of active warp inst buffers at a given time
system.gpu.shader_cores0.lsq.warpInstBufActive::gmean          nan                       # Histogram of number of active warp inst buffers at a given time
system.gpu.shader_cores0.lsq.warpInstBufActive::stdev     3.614376                       # Histogram of number of active warp inst buffers at a given time
system.gpu.shader_cores0.lsq.warpInstBufActive::0   1109937975     64.68%     64.68% # Histogram of number of active warp inst buffers at a given time
system.gpu.shader_cores0.lsq.warpInstBufActive::1    319781620     18.64%     83.32% # Histogram of number of active warp inst buffers at a given time
system.gpu.shader_cores0.lsq.warpInstBufActive::2    192799251     11.24%     94.56% # Histogram of number of active warp inst buffers at a given time
system.gpu.shader_cores0.lsq.warpInstBufActive::3     64896606      3.78%     98.34% # Histogram of number of active warp inst buffers at a given time
system.gpu.shader_cores0.lsq.warpInstBufActive::4     15517511      0.90%     99.24% # Histogram of number of active warp inst buffers at a given time
system.gpu.shader_cores0.lsq.warpInstBufActive::5      2549336      0.15%     99.39% # Histogram of number of active warp inst buffers at a given time
system.gpu.shader_cores0.lsq.warpInstBufActive::6       521585      0.03%     99.42% # Histogram of number of active warp inst buffers at a given time
system.gpu.shader_cores0.lsq.warpInstBufActive::7       177196      0.01%     99.43% # Histogram of number of active warp inst buffers at a given time
system.gpu.shader_cores0.lsq.warpInstBufActive::8       284371      0.02%     99.45% # Histogram of number of active warp inst buffers at a given time
system.gpu.shader_cores0.lsq.warpInstBufActive::9       217208      0.01%     99.46% # Histogram of number of active warp inst buffers at a given time
system.gpu.shader_cores0.lsq.warpInstBufActive::10       157190      0.01%     99.47% # Histogram of number of active warp inst buffers at a given time
system.gpu.shader_cores0.lsq.warpInstBufActive::11       152903      0.01%     99.48% # Histogram of number of active warp inst buffers at a given time
system.gpu.shader_cores0.lsq.warpInstBufActive::12        84311      0.00%     99.48% # Histogram of number of active warp inst buffers at a given time
system.gpu.shader_cores0.lsq.warpInstBufActive::13       130039      0.01%     99.49% # Histogram of number of active warp inst buffers at a given time
system.gpu.shader_cores0.lsq.warpInstBufActive::14       130039      0.01%     99.50% # Histogram of number of active warp inst buffers at a given time
system.gpu.shader_cores0.lsq.warpInstBufActive::15        90027      0.01%     99.50% # Histogram of number of active warp inst buffers at a given time
system.gpu.shader_cores0.lsq.warpInstBufActive::16       180054      0.01%     99.51% # Histogram of number of active warp inst buffers at a given time
system.gpu.shader_cores0.lsq.warpInstBufActive::17       154332      0.01%     99.52% # Histogram of number of active warp inst buffers at a given time
system.gpu.shader_cores0.lsq.warpInstBufActive::18       164335      0.01%     99.53% # Histogram of number of active warp inst buffers at a given time
system.gpu.shader_cores0.lsq.warpInstBufActive::19       178625      0.01%     99.54% # Histogram of number of active warp inst buffers at a given time
system.gpu.shader_cores0.lsq.warpInstBufActive::20       165764      0.01%     99.55% # Histogram of number of active warp inst buffers at a given time
system.gpu.shader_cores0.lsq.warpInstBufActive::21       128610      0.01%     99.56% # Histogram of number of active warp inst buffers at a given time
system.gpu.shader_cores0.lsq.warpInstBufActive::22        82882      0.00%     99.57% # Histogram of number of active warp inst buffers at a given time
system.gpu.shader_cores0.lsq.warpInstBufActive::23       175767      0.01%     99.58% # Histogram of number of active warp inst buffers at a given time
system.gpu.shader_cores0.lsq.warpInstBufActive::24        65734      0.00%     99.58% # Histogram of number of active warp inst buffers at a given time
system.gpu.shader_cores0.lsq.warpInstBufActive::25       135755      0.01%     99.59% # Histogram of number of active warp inst buffers at a given time
system.gpu.shader_cores0.lsq.warpInstBufActive::26       101459      0.01%     99.59% # Histogram of number of active warp inst buffers at a given time
system.gpu.shader_cores0.lsq.warpInstBufActive::27       121465      0.01%     99.60% # Histogram of number of active warp inst buffers at a given time
system.gpu.shader_cores0.lsq.warpInstBufActive::28       117178      0.01%     99.61% # Histogram of number of active warp inst buffers at a given time
system.gpu.shader_cores0.lsq.warpInstBufActive::29       124323      0.01%     99.61% # Histogram of number of active warp inst buffers at a given time
system.gpu.shader_cores0.lsq.warpInstBufActive::30       117178      0.01%     99.62% # Histogram of number of active warp inst buffers at a given time
system.gpu.shader_cores0.lsq.warpInstBufActive::31       132897      0.01%     99.63% # Histogram of number of active warp inst buffers at a given time
system.gpu.shader_cores0.lsq.warpInstBufActive::32       121465      0.01%     99.64% # Histogram of number of active warp inst buffers at a given time
system.gpu.shader_cores0.lsq.warpInstBufActive::33       100030      0.01%     99.64% # Histogram of number of active warp inst buffers at a given time
system.gpu.shader_cores0.lsq.warpInstBufActive::34        71450      0.00%     99.65% # Histogram of number of active warp inst buffers at a given time
system.gpu.shader_cores0.lsq.warpInstBufActive::35        25722      0.00%     99.65% # Histogram of number of active warp inst buffers at a given time
system.gpu.shader_cores0.lsq.warpInstBufActive::36        51444      0.00%     99.65% # Histogram of number of active warp inst buffers at a given time
system.gpu.shader_cores0.lsq.warpInstBufActive::37        20006      0.00%     99.65% # Histogram of number of active warp inst buffers at a given time
system.gpu.shader_cores0.lsq.warpInstBufActive::38       118607      0.01%     99.66% # Histogram of number of active warp inst buffers at a given time
system.gpu.shader_cores0.lsq.warpInstBufActive::39       211492      0.01%     99.67% # Histogram of number of active warp inst buffers at a given time
system.gpu.shader_cores0.lsq.warpInstBufActive::40       137184      0.01%     99.68% # Histogram of number of active warp inst buffers at a given time
system.gpu.shader_cores0.lsq.warpInstBufActive::41       122894      0.01%     99.69% # Histogram of number of active warp inst buffers at a given time
system.gpu.shader_cores0.lsq.warpInstBufActive::42       218637      0.01%     99.70% # Histogram of number of active warp inst buffers at a given time
system.gpu.shader_cores0.lsq.warpInstBufActive::43       115749      0.01%     99.71% # Histogram of number of active warp inst buffers at a given time
system.gpu.shader_cores0.lsq.warpInstBufActive::44       177196      0.01%     99.72% # Histogram of number of active warp inst buffers at a given time
system.gpu.shader_cores0.lsq.warpInstBufActive::45        61447      0.00%     99.72% # Histogram of number of active warp inst buffers at a given time
system.gpu.shader_cores0.lsq.warpInstBufActive::46        42870      0.00%     99.72% # Histogram of number of active warp inst buffers at a given time
system.gpu.shader_cores0.lsq.warpInstBufActive::47        44299      0.00%     99.72% # Histogram of number of active warp inst buffers at a given time
system.gpu.shader_cores0.lsq.warpInstBufActive::48       127181      0.01%     99.73% # Histogram of number of active warp inst buffers at a given time
system.gpu.shader_cores0.lsq.warpInstBufActive::49       165764      0.01%     99.74% # Histogram of number of active warp inst buffers at a given time
system.gpu.shader_cores0.lsq.warpInstBufActive::50       130039      0.01%     99.75% # Histogram of number of active warp inst buffers at a given time
system.gpu.shader_cores0.lsq.warpInstBufActive::51       218637      0.01%     99.76% # Histogram of number of active warp inst buffers at a given time
system.gpu.shader_cores0.lsq.warpInstBufActive::52       100030      0.01%     99.77% # Histogram of number of active warp inst buffers at a given time
system.gpu.shader_cores0.lsq.warpInstBufActive::53        24293      0.00%     99.77% # Histogram of number of active warp inst buffers at a given time
system.gpu.shader_cores0.lsq.warpInstBufActive::54        35725      0.00%     99.77% # Histogram of number of active warp inst buffers at a given time
system.gpu.shader_cores0.lsq.warpInstBufActive::55        18577      0.00%     99.77% # Histogram of number of active warp inst buffers at a given time
system.gpu.shader_cores0.lsq.warpInstBufActive::56        21435      0.00%     99.77% # Histogram of number of active warp inst buffers at a given time
system.gpu.shader_cores0.lsq.warpInstBufActive::57       137184      0.01%     99.78% # Histogram of number of active warp inst buffers at a given time
system.gpu.shader_cores0.lsq.warpInstBufActive::58       130039      0.01%     99.79% # Histogram of number of active warp inst buffers at a given time
system.gpu.shader_cores0.lsq.warpInstBufActive::59       127181      0.01%     99.80% # Histogram of number of active warp inst buffers at a given time
system.gpu.shader_cores0.lsq.warpInstBufActive::60       131468      0.01%     99.80% # Histogram of number of active warp inst buffers at a given time
system.gpu.shader_cores0.lsq.warpInstBufActive::61       117178      0.01%     99.81% # Histogram of number of active warp inst buffers at a given time
system.gpu.shader_cores0.lsq.warpInstBufActive::62       195773      0.01%     99.82% # Histogram of number of active warp inst buffers at a given time
system.gpu.shader_cores0.lsq.warpInstBufActive::63       271510      0.02%     99.84% # Histogram of number of active warp inst buffers at a given time
system.gpu.shader_cores0.lsq.warpInstBufActive::64      2777976      0.16%    100.00% # Histogram of number of active warp inst buffers at a given time
system.gpu.shader_cores0.lsq.warpInstBufActive::total   1715944008                       # Histogram of number of active warp inst buffers at a given time
system.gpu.shader_cores0.lsq.cacheAccesses     0.061469                       # Average number of concurrent outstanding cache accesses
system.gpu.shader_cores0.lsq.writebackBlockedCycles         7866                       # Number of cycles blocked for core writeback stage
system.gpu.shader_cores0.lsq.mshrHitQueued         1194                       # Number of hits on blocked lines in MSHRs
system.gpu.shader_cores0.lsq.mshrsFullCycles            0                       # Number of cycles stalled waiting for an MSHR
system.gpu.shader_cores0.lsq.mshrsFullCount            0                       # Number of times MSHRs filled
system.gpu.shader_cores0.lsq.warpCoalescedAccesses::samples        59314                       # Number of coalesced accesses per warp instruction
system.gpu.shader_cores0.lsq.warpCoalescedAccesses::mean     1.081178                       # Number of coalesced accesses per warp instruction
system.gpu.shader_cores0.lsq.warpCoalescedAccesses::gmean     1.027488                       # Number of coalesced accesses per warp instruction
system.gpu.shader_cores0.lsq.warpCoalescedAccesses::stdev     0.902998                       # Number of coalesced accesses per warp instruction
system.gpu.shader_cores0.lsq.warpCoalescedAccesses::0            0      0.00%      0.00% # Number of coalesced accesses per warp instruction
system.gpu.shader_cores0.lsq.warpCoalescedAccesses::1        58181     98.09%     98.09% # Number of coalesced accesses per warp instruction
system.gpu.shader_cores0.lsq.warpCoalescedAccesses::2          253      0.43%     98.52% # Number of coalesced accesses per warp instruction
system.gpu.shader_cores0.lsq.warpCoalescedAccesses::3          270      0.46%     98.97% # Number of coalesced accesses per warp instruction
system.gpu.shader_cores0.lsq.warpCoalescedAccesses::4          154      0.26%     99.23% # Number of coalesced accesses per warp instruction
system.gpu.shader_cores0.lsq.warpCoalescedAccesses::5          131      0.22%     99.45% # Number of coalesced accesses per warp instruction
system.gpu.shader_cores0.lsq.warpCoalescedAccesses::6           98      0.17%     99.62% # Number of coalesced accesses per warp instruction
system.gpu.shader_cores0.lsq.warpCoalescedAccesses::7           58      0.10%     99.72% # Number of coalesced accesses per warp instruction
system.gpu.shader_cores0.lsq.warpCoalescedAccesses::8           64      0.11%     99.82% # Number of coalesced accesses per warp instruction
system.gpu.shader_cores0.lsq.warpCoalescedAccesses::9            5      0.01%     99.83% # Number of coalesced accesses per warp instruction
system.gpu.shader_cores0.lsq.warpCoalescedAccesses::10            4      0.01%     99.84% # Number of coalesced accesses per warp instruction
system.gpu.shader_cores0.lsq.warpCoalescedAccesses::11           48      0.08%     99.92% # Number of coalesced accesses per warp instruction
system.gpu.shader_cores0.lsq.warpCoalescedAccesses::12            0      0.00%     99.92% # Number of coalesced accesses per warp instruction
system.gpu.shader_cores0.lsq.warpCoalescedAccesses::13            0      0.00%     99.92% # Number of coalesced accesses per warp instruction
system.gpu.shader_cores0.lsq.warpCoalescedAccesses::14            0      0.00%     99.92% # Number of coalesced accesses per warp instruction
system.gpu.shader_cores0.lsq.warpCoalescedAccesses::15            0      0.00%     99.92% # Number of coalesced accesses per warp instruction
system.gpu.shader_cores0.lsq.warpCoalescedAccesses::16            0      0.00%     99.92% # Number of coalesced accesses per warp instruction
system.gpu.shader_cores0.lsq.warpCoalescedAccesses::17            0      0.00%     99.92% # Number of coalesced accesses per warp instruction
system.gpu.shader_cores0.lsq.warpCoalescedAccesses::18            0      0.00%     99.92% # Number of coalesced accesses per warp instruction
system.gpu.shader_cores0.lsq.warpCoalescedAccesses::19            9      0.02%     99.93% # Number of coalesced accesses per warp instruction
system.gpu.shader_cores0.lsq.warpCoalescedAccesses::20            0      0.00%     99.93% # Number of coalesced accesses per warp instruction
system.gpu.shader_cores0.lsq.warpCoalescedAccesses::21            3      0.01%     99.94% # Number of coalesced accesses per warp instruction
system.gpu.shader_cores0.lsq.warpCoalescedAccesses::22            6      0.01%     99.95% # Number of coalesced accesses per warp instruction
system.gpu.shader_cores0.lsq.warpCoalescedAccesses::23            0      0.00%     99.95% # Number of coalesced accesses per warp instruction
system.gpu.shader_cores0.lsq.warpCoalescedAccesses::24            0      0.00%     99.95% # Number of coalesced accesses per warp instruction
system.gpu.shader_cores0.lsq.warpCoalescedAccesses::25            6      0.01%     99.96% # Number of coalesced accesses per warp instruction
system.gpu.shader_cores0.lsq.warpCoalescedAccesses::26            3      0.01%     99.96% # Number of coalesced accesses per warp instruction
system.gpu.shader_cores0.lsq.warpCoalescedAccesses::27            0      0.00%     99.96% # Number of coalesced accesses per warp instruction
system.gpu.shader_cores0.lsq.warpCoalescedAccesses::28            0      0.00%     99.96% # Number of coalesced accesses per warp instruction
system.gpu.shader_cores0.lsq.warpCoalescedAccesses::29            0      0.00%     99.96% # Number of coalesced accesses per warp instruction
system.gpu.shader_cores0.lsq.warpCoalescedAccesses::30            6      0.01%     99.97% # Number of coalesced accesses per warp instruction
system.gpu.shader_cores0.lsq.warpCoalescedAccesses::31           12      0.02%     99.99% # Number of coalesced accesses per warp instruction
system.gpu.shader_cores0.lsq.warpCoalescedAccesses::32            3      0.01%    100.00% # Number of coalesced accesses per warp instruction
system.gpu.shader_cores0.lsq.warpCoalescedAccesses::total        59314                       # Number of coalesced accesses per warp instruction
system.gpu.shader_cores0.lsq.warpLatencyRead::samples        58465                       # Latency in cycles for whole warp to finish the read
system.gpu.shader_cores0.lsq.warpLatencyRead::mean    12.472830                       # Latency in cycles for whole warp to finish the read
system.gpu.shader_cores0.lsq.warpLatencyRead::gmean    11.434788                       # Latency in cycles for whole warp to finish the read
system.gpu.shader_cores0.lsq.warpLatencyRead::stdev    44.184286                       # Latency in cycles for whole warp to finish the read
system.gpu.shader_cores0.lsq.warpLatencyRead::0-255        58430     99.94%     99.94% # Latency in cycles for whole warp to finish the read
system.gpu.shader_cores0.lsq.warpLatencyRead::256-511           11      0.02%     99.96% # Latency in cycles for whole warp to finish the read
system.gpu.shader_cores0.lsq.warpLatencyRead::512-767            0      0.00%     99.96% # Latency in cycles for whole warp to finish the read
system.gpu.shader_cores0.lsq.warpLatencyRead::768-1023            0      0.00%     99.96% # Latency in cycles for whole warp to finish the read
system.gpu.shader_cores0.lsq.warpLatencyRead::1024-1279            3      0.01%     99.96% # Latency in cycles for whole warp to finish the read
system.gpu.shader_cores0.lsq.warpLatencyRead::1280-1535            4      0.01%     99.97% # Latency in cycles for whole warp to finish the read
system.gpu.shader_cores0.lsq.warpLatencyRead::1536-1791            1      0.00%     99.97% # Latency in cycles for whole warp to finish the read
system.gpu.shader_cores0.lsq.warpLatencyRead::1792-2047            4      0.01%     99.98% # Latency in cycles for whole warp to finish the read
system.gpu.shader_cores0.lsq.warpLatencyRead::2048-2303            0      0.00%     99.98% # Latency in cycles for whole warp to finish the read
system.gpu.shader_cores0.lsq.warpLatencyRead::2304-2559            4      0.01%     99.99% # Latency in cycles for whole warp to finish the read
system.gpu.shader_cores0.lsq.warpLatencyRead::2560-2815            8      0.01%    100.00% # Latency in cycles for whole warp to finish the read
system.gpu.shader_cores0.lsq.warpLatencyRead::2816-3071            0      0.00%    100.00% # Latency in cycles for whole warp to finish the read
system.gpu.shader_cores0.lsq.warpLatencyRead::3072-3327            0      0.00%    100.00% # Latency in cycles for whole warp to finish the read
system.gpu.shader_cores0.lsq.warpLatencyRead::3328-3583            0      0.00%    100.00% # Latency in cycles for whole warp to finish the read
system.gpu.shader_cores0.lsq.warpLatencyRead::3584-3839            0      0.00%    100.00% # Latency in cycles for whole warp to finish the read
system.gpu.shader_cores0.lsq.warpLatencyRead::3840-4095            0      0.00%    100.00% # Latency in cycles for whole warp to finish the read
system.gpu.shader_cores0.lsq.warpLatencyRead::total        58465                       # Latency in cycles for whole warp to finish the read
system.gpu.shader_cores0.lsq.warpLatencyWrite::samples          798                       # Latency in cycles for whole warp to finish the write
system.gpu.shader_cores0.lsq.warpLatencyWrite::mean   198.225564                       # Latency in cycles for whole warp to finish the write
system.gpu.shader_cores0.lsq.warpLatencyWrite::gmean    43.907521                       # Latency in cycles for whole warp to finish the write
system.gpu.shader_cores0.lsq.warpLatencyWrite::stdev   372.390867                       # Latency in cycles for whole warp to finish the write
system.gpu.shader_cores0.lsq.warpLatencyWrite::0-127          612     76.69%     76.69% # Latency in cycles for whole warp to finish the write
system.gpu.shader_cores0.lsq.warpLatencyWrite::128-255           28      3.51%     80.20% # Latency in cycles for whole warp to finish the write
system.gpu.shader_cores0.lsq.warpLatencyWrite::256-383           12      1.50%     81.70% # Latency in cycles for whole warp to finish the write
system.gpu.shader_cores0.lsq.warpLatencyWrite::384-511           18      2.26%     83.96% # Latency in cycles for whole warp to finish the write
system.gpu.shader_cores0.lsq.warpLatencyWrite::512-639           12      1.50%     85.46% # Latency in cycles for whole warp to finish the write
system.gpu.shader_cores0.lsq.warpLatencyWrite::640-767           12      1.50%     86.97% # Latency in cycles for whole warp to finish the write
system.gpu.shader_cores0.lsq.warpLatencyWrite::768-895           30      3.76%     90.73% # Latency in cycles for whole warp to finish the write
system.gpu.shader_cores0.lsq.warpLatencyWrite::896-1023           31      3.88%     94.61% # Latency in cycles for whole warp to finish the write
system.gpu.shader_cores0.lsq.warpLatencyWrite::1024-1151           13      1.63%     96.24% # Latency in cycles for whole warp to finish the write
system.gpu.shader_cores0.lsq.warpLatencyWrite::1152-1279            8      1.00%     97.24% # Latency in cycles for whole warp to finish the write
system.gpu.shader_cores0.lsq.warpLatencyWrite::1280-1407           10      1.25%     98.50% # Latency in cycles for whole warp to finish the write
system.gpu.shader_cores0.lsq.warpLatencyWrite::1408-1535            6      0.75%     99.25% # Latency in cycles for whole warp to finish the write
system.gpu.shader_cores0.lsq.warpLatencyWrite::1536-1663            2      0.25%     99.50% # Latency in cycles for whole warp to finish the write
system.gpu.shader_cores0.lsq.warpLatencyWrite::1664-1791            4      0.50%    100.00% # Latency in cycles for whole warp to finish the write
system.gpu.shader_cores0.lsq.warpLatencyWrite::1792-1919            0      0.00%    100.00% # Latency in cycles for whole warp to finish the write
system.gpu.shader_cores0.lsq.warpLatencyWrite::1920-2047            0      0.00%    100.00% # Latency in cycles for whole warp to finish the write
system.gpu.shader_cores0.lsq.warpLatencyWrite::total          798                       # Latency in cycles for whole warp to finish the write
system.gpu.shader_cores0.lsq.warpLatencyFence::samples          571                       # Latency in cycles for whole warp to finish the fence
[...]
system.ruby.L1Cache_Controller.SM.Ack::total         1029                      
system.ruby.L1Cache_Controller.SM.Data   |           0      0.00%      0.00% |          56     19.31%     19.31% |          32     11.03%     30.34% |         131     45.17%     75.52% |          71     24.48%    100.00% |           0      0.00%    100.00% |           0      0.00%    100.00%
system.ruby.L1Cache_Controller.SM.Data::total          290                      
system.ruby.L1Cache_Controller.OM.L1_to_L2 |           0      0.00%      0.00% |           0      0.00%      0.00% |           0      0.00%      0.00% |          22    100.00%    100.00% |           0      0.00%    100.00% |           0      0.00%    100.00% |           0      0.00%    100.00%
system.ruby.L1Cache_Controller.OM.L1_to_L2::total           22                      
system.ruby.L1Cache_Controller.OM.Other_GETX |           0      0.00%      0.00% |           2     50.00%     50.00% |           0      0.00%     50.00% |           1     25.00%     75.00% |           1     25.00%    100.00% |           0      0.00%    100.00% |           0      0.00%    100.00%
system.ruby.L1Cache_Controller.OM.Other_GETX::total            4                      
system.ruby.L1Cache_Controller.OM.Ack    |           0      0.00%      0.00% |          42      4.07%      4.07% |           0      0.00%      4.07% |         648     62.79%     66.86% |         342     33.14%    100.00% |           0      0.00%    100.00% |           0      0.00%    100.00%
system.ruby.L1Cache_Controller.OM.Ack::total         1032                      
system.ruby.L1Cache_Controller.OM.All_acks_no_sharers |           0      0.00%      0.00% |           7      4.07%      4.07% |           0      0.00%      4.07% |         108     62.79%     66.86% |          57     33.14%    100.00% |           0      0.00%    100.00% |           0      0.00%    100.00%
system.ruby.L1Cache_Controller.OM.All_acks_no_sharers::total          172                      
system.ruby.L1Cache_Controller.ISM.L1_to_L2 |           0      0.00%      0.00% |           0      0.00%      0.00% |           0      0.00%      0.00% |           2    100.00%    100.00% |           0      0.00%    100.00% |           0      0.00%    100.00% |           0      0.00%    100.00%
system.ruby.L1Cache_Controller.ISM.L1_to_L2::total            2                      
system.ruby.L1Cache_Controller.ISM.Ack   |           0      0.00%      0.00% |          99     21.24%     21.24% |          71     15.24%     36.48% |         162     34.76%     71.24% |         123     26.39%     97.64% |           0      0.00%     97.64% |          11      2.36%    100.00%
system.ruby.L1Cache_Controller.ISM.Ack::total          466                      
system.ruby.L1Cache_Controller.ISM.All_acks_no_sharers |           0      0.00%      0.00% |          56     17.89%     17.89% |          33     10.54%     28.43% |         133     42.49%     70.93% |          85     27.16%     98.08% |           0      0.00%     98.08% |           6      1.92%    100.00%
system.ruby.L1Cache_Controller.ISM.All_acks_no_sharers::total          313                      
system.ruby.L1Cache_Controller.M_W.Load  |           2      5.88%      5.88% |           8     23.53%     29.41% |           1      2.94%     32.35% |           5     14.71%     47.06% |          18     52.94%    100.00% |           0      0.00%    100.00% |           0      0.00%    100.00%
system.ruby.L1Cache_Controller.M_W.Load::total           34                      
system.ruby.L1Cache_Controller.M_W.Store |           0      0.00%      0.00% |           0      0.00%      0.00% |           0      0.00%      0.00% |           1     50.00%     50.00% |           1     50.00%    100.00% |           0      0.00%    100.00% |           0      0.00%    100.00%
system.ruby.L1Cache_Controller.M_W.Store::total            2                      
system.ruby.L1Cache_Controller.M_W.L1_to_L2 |           0      0.00%      0.00% |           0      0.00%      0.00% |           0      0.00%      0.00% |           0      0.00%      0.00% |           0      0.00%      0.00% |           0      0.00%      0.00% |          19    100.00%    100.00%
system.ruby.L1Cache_Controller.M_W.L1_to_L2::total           19                      
system.ruby.L1Cache_Controller.M_W.Ack   |          20      1.52%      1.52% |         160     12.20%     13.72% |         336     25.61%     39.33% |         302     23.02%     62.35% |         214     16.31%     78.66% |           0      0.00%     78.66% |         280     21.34%    100.00%
system.ruby.L1Cache_Controller.M_W.Ack::total         1312                      
system.ruby.L1Cache_Controller.M_W.All_acks_no_sharers |        1220     47.86%     47.86% |         118      4.63%     52.49% |         215      8.43%     60.93% |         363     14.24%     75.17% |         215      8.43%     83.60% |           0      0.00%     83.60% |         418     16.40%    100.00%
system.ruby.L1Cache_Controller.M_W.All_acks_no_sharers::total         2549                      
system.ruby.L1Cache_Controller.MM_W.Load |           0      0.00%      0.00% |           1      9.09%      9.09% |           1      9.09%     18.18% |           5     45.45%     63.64% |           4     36.36%    100.00% |           0      0.00%    100.00% |           0      0.00%    100.00%
system.ruby.L1Cache_Controller.MM_W.Load::total           11                      
system.ruby.L1Cache_Controller.MM_W.Store |           0      0.00%      0.00% |         115     16.64%     16.64% |         138     19.97%     36.61% |         238     34.44%     71.06% |         200     28.94%    100.00% |           0      0.00%    100.00% |           0      0.00%    100.00%
system.ruby.L1Cache_Controller.MM_W.Store::total          691                      
system.ruby.L1Cache_Controller.MM_W.L1_to_L2 |           0      0.00%      0.00% |           0      0.00%      0.00% |           0      0.00%      0.00% |           0      0.00%      0.00% |           0      0.00%      0.00% |           0      0.00%      0.00% |          31    100.00%    100.00%
system.ruby.L1Cache_Controller.MM_W.L1_to_L2::total           31                      
system.ruby.L1Cache_Controller.MM_W.Ack  |           0      0.00%      0.00% |         670     21.14%     21.14% |         604     19.05%     40.19% |         890     28.08%     68.26% |         975     30.76%     99.02% |           0      0.00%     99.02% |          31      0.98%    100.00%
system.ruby.L1Cache_Controller.MM_W.Ack::total         3170                      
system.ruby.L1Cache_Controller.MM_W.All_acks_no_sharers |         375      8.07%      8.07% |         720     15.50%     23.57% |         777     16.72%     40.29% |        1201     25.85%     66.14% |        1156     24.88%     91.02% |           0      0.00%     91.02% |         417      8.98%    100.00%
system.ruby.L1Cache_Controller.MM_W.All_acks_no_sharers::total         4646                      
system.ruby.L1Cache_Controller.IS.L1_to_L2 |           0      0.00%      0.00% |           0      0.00%      0.00% |           0      0.00%      0.00% |           1      0.02%      0.02% |           0      0.00%      0.02% |           0      0.00%      0.02% |        6065     99.98%    100.00%
system.ruby.L1Cache_Controller.IS.L1_to_L2::total         6066                      
system.ruby.L1Cache_Controller.IS.Other_GETX |           0      0.00%      0.00% |           1     20.00%     20.00% |           0      0.00%     20.00% |           3     60.00%     80.00% |           1     20.00%    100.00% |           0      0.00%    100.00% |           0      0.00%    100.00%
system.ruby.L1Cache_Controller.IS.Other_GETX::total            5                      
system.ruby.L1Cache_Controller.IS.Other_GETS |           0      0.00%      0.00% |          15     16.85%     16.85% |          14     15.73%     32.58% |          30     33.71%     66.29% |          30     33.71%    100.00% |           0      0.00%    100.00% |           0      0.00%    100.00%
system.ruby.L1Cache_Controller.IS.Other_GETS::total           89                      
system.ruby.L1Cache_Controller.IS.Other_GETS_No_Mig |           0      0.00%      0.00% |           0      0.00%      0.00% |           1    100.00%    100.00% |           0      0.00%    100.00% |           0      0.00%    100.00% |           0      0.00%    100.00% |           0      0.00%    100.00%
system.ruby.L1Cache_Controller.IS.Other_GETS_No_Mig::total            1                      
system.ruby.L1Cache_Controller.IS.Ack    |        7288     42.17%     42.17% |        1563      9.04%     51.21% |        1644      9.51%     60.72% |        2784     16.11%     76.83% |        2178     12.60%     89.43% |           0      0.00%     89.43% |        1826     10.57%    100.00%
system.ruby.L1Cache_Controller.IS.Ack::total        17283                      
system.ruby.L1Cache_Controller.IS.Shared_Ack |           0      0.00%      0.00% |         176     30.50%     30.50% |         142     24.61%     55.11% |         130     22.53%     77.64% |         129     22.36%    100.00% |           0      0.00%    100.00% |           0      0.00%    100.00%
system.ruby.L1Cache_Controller.IS.Shared_Ack::total          577                      
system.ruby.L1Cache_Controller.IS.Shared_Data |           0      0.00%      0.00% |         434     26.87%     26.87% |         336     20.80%     47.68% |         419     25.94%     73.62% |         420     26.01%     99.63% |           0      0.00%     99.63% |           6      0.37%    100.00%
system.ruby.L1Cache_Controller.IS.Shared_Data::total         1615                      
system.ruby.L1Cache_Controller.IS.Exclusive_Data |        1220     47.82%     47.82% |         118      4.63%     52.45% |         215      8.43%     60.88% |         364     14.27%     75.15% |         216      8.47%     83.61% |           0      0.00%     83.61% |         418     16.39%    100.00%
system.ruby.L1Cache_Controller.IS.Exclusive_Data::total         2551                      
system.ruby.L1Cache_Controller.SS.Load   |           0      0.00%      0.00% |          29     27.62%     27.62% |          31     29.52%     57.14% |          19     18.10%     75.24% |          26     24.76%    100.00% |           0      0.00%    100.00% |           0      0.00%    100.00%
system.ruby.L1Cache_Controller.SS.Load::total          105                      
system.ruby.L1Cache_Controller.SS.Store  |           0      0.00%      0.00% |           0      0.00%      0.00% |           0      0.00%      0.00% |           0      0.00%      0.00% |           2    100.00%    100.00% |           0      0.00%    100.00% |           0      0.00%    100.00%
system.ruby.L1Cache_Controller.SS.Store::total            2                      
system.ruby.L1Cache_Controller.SS.Ack    |           0      0.00%      0.00% |         585     31.32%     31.32% |         415     22.22%     53.53% |         448     23.98%     77.52% |         406     21.73%     99.25% |           0      0.00%     99.25% |          14      0.75%    100.00%
system.ruby.L1Cache_Controller.SS.Ack::total         1868                      
system.ruby.L1Cache_Controller.SS.Shared_Ack |           0      0.00%      0.00% |         172     35.17%     35.17% |         154     31.49%     66.67% |          88     18.00%     84.66% |          75     15.34%    100.00% |           0      0.00%    100.00% |           0      0.00%    100.00%
system.ruby.L1Cache_Controller.SS.Shared_Ack::total          489                      
system.ruby.L1Cache_Controller.SS.All_acks |           0      0.00%      0.00% |         434     26.87%     26.87% |         336     20.80%     47.68% |         419     25.94%     73.62% |         420     26.01%     99.63% |           0      0.00%     99.63% |           6      0.37%    100.00%
system.ruby.L1Cache_Controller.SS.All_acks::total         1615                      
system.ruby.L1Cache_Controller.MI.Writeback_Ack |           0      0.00%      0.00% |           0      0.00%      0.00% |           0      0.00%      0.00% |           0      0.00%      0.00% |           0      0.00%      0.00% |           0      0.00%      0.00% |         790    100.00%    100.00%
system.ruby.L1Cache_Controller.MI.Writeback_Ack::total          790                      
system.ruby.L1Cache_Controller.IT.Load   |           0      0.00%      0.00% |           0      0.00%      0.00% |           0      0.00%      0.00% |           6     75.00%     75.00% |           2     25.00%    100.00% |           0      0.00%    100.00% |           0      0.00%    100.00%
system.ruby.L1Cache_Controller.IT.Load::total            8                      
system.ruby.L1Cache_Controller.IT.Store  |           0      0.00%      0.00% |           1      0.64%      0.64% |          54     34.62%     35.26% |          75     48.08%     83.33% |          25     16.03%     99.36% |           0      0.00%     99.36% |           1      0.64%    100.00%
system.ruby.L1Cache_Controller.IT.Store::total          156                      
system.ruby.L1Cache_Controller.IT.Complete_L2_to_L1 |           5      0.79%      0.79% |          67     10.63%     11.43% |         126     20.00%     31.43% |         261     41.43%     72.86% |         168     26.67%     99.52% |           0      0.00%     99.52% |           3      0.48%    100.00%
system.ruby.L1Cache_Controller.IT.Complete_L2_to_L1::total          630                      
system.ruby.L1Cache_Controller.ST.Load   |           0      0.00%      0.00% |         129     52.02%     52.02% |          41     16.53%     68.55% |          49     19.76%     88.31% |          29     11.69%    100.00% |           0      0.00%    100.00% |           0      0.00%    100.00%
system.ruby.L1Cache_Controller.ST.Load::total          248                      
system.ruby.L1Cache_Controller.ST.Complete_L2_to_L1 |           0      0.00%      0.00% |        1513     26.31%     26.31% |        1344     23.37%     49.69% |        1520     26.43%     76.12% |        1373     23.88%    100.00% |           0      0.00%    100.00% |           0      0.00%    100.00%
system.ruby.L1Cache_Controller.ST.Complete_L2_to_L1::total         5750                      
system.ruby.L1Cache_Controller.OT.Load   |           0      0.00%      0.00% |           2      2.41%      2.41% |          11     13.25%     15.66% |          52     62.65%     78.31% |          18     21.69%    100.00% |           0      0.00%    100.00% |           0      0.00%    100.00%
system.ruby.L1Cache_Controller.OT.Load::total           83                      
system.ruby.L1Cache_Controller.OT.Complete_L2_to_L1 |           0      0.00%      0.00% |         207     10.47%     10.47% |         489     24.73%     35.20% |         642     32.47%     67.68% |         639     32.32%    100.00% |           0      0.00%    100.00% |           0      0.00%    100.00%
system.ruby.L1Cache_Controller.OT.Complete_L2_to_L1::total         1977                      
system.ruby.L1Cache_Controller.MT.Load   |           0      0.00%      0.00% |          11    100.00%    100.00% |           0      0.00%    100.00% |           0      0.00%    100.00% |           0      0.00%    100.00% |           0      0.00%    100.00% |           0      0.00%    100.00%
system.ruby.L1Cache_Controller.MT.Load::total           11                      
system.ruby.L1Cache_Controller.MT.Store  |           0      0.00%      0.00% |           0      0.00%      0.00% |           0      0.00%      0.00% |           8    100.00%    100.00% |           0      0.00%    100.00% |           0      0.00%    100.00% |           0      0.00%    100.00%
system.ruby.L1Cache_Controller.MT.Store::total            8                      
system.ruby.L1Cache_Controller.MT.Complete_L2_to_L1 |        1079     95.07%     95.07% |           7      0.62%     95.68% |          17      1.50%     97.18% |          30      2.64%     99.82% |           2      0.18%    100.00% |           0      0.00%    100.00% |           0      0.00%    100.00%
system.ruby.L1Cache_Controller.MT.Complete_L2_to_L1::total         1135                      
system.ruby.L1Cache_Controller.MMT.Store |           0      0.00%      0.00% |          60     22.30%     22.30% |          42     15.61%     37.92% |         116     43.12%     81.04% |          51     18.96%    100.00% |           0      0.00%    100.00% |           0      0.00%    100.00%
system.ruby.L1Cache_Controller.MMT.Store::total          269                      
system.ruby.L1Cache_Controller.MMT.Complete_L2_to_L1 |         111     24.24%     24.24% |          72     15.72%     39.96% |          91     19.87%     59.83% |         115     25.11%     84.93% |          69     15.07%    100.00% |           0      0.00%    100.00% |           0      0.00%    100.00%
system.ruby.L1Cache_Controller.MMT.Complete_L2_to_L1::total          458                      
system.ruby.Directory_Controller.GETX            5841      0.00%      0.00%
system.ruby.Directory_Controller.GETS            4270      0.00%      0.00%
system.ruby.Directory_Controller.PUT              791      0.00%      0.00%
system.ruby.Directory_Controller.UnblockS         1615      0.00%      0.00%
system.ruby.Directory_Controller.UnblockM         7679      0.00%      0.00%
system.ruby.Directory_Controller.Writeback_Exclusive_Dirty          790      0.00%      0.00%
system.ruby.Directory_Controller.Memory_Data         3223      0.00%      0.00%
system.ruby.Directory_Controller.Memory_Ack          790      0.00%      0.00%
system.ruby.Directory_Controller.All_Unblocks          119      0.00%      0.00%
system.ruby.Directory_Controller.NX.GETX          485      0.00%      0.00%
system.ruby.Directory_Controller.NX.GETS          730      0.00%      0.00%
system.ruby.Directory_Controller.NO.GETX         2909      0.00%      0.00%
system.ruby.Directory_Controller.NO.GETS         1791      0.00%      0.00%
system.ruby.Directory_Controller.NO.PUT           790      0.00%      0.00%
system.ruby.Directory_Controller.E.GETX          1735      0.00%      0.00%
system.ruby.Directory_Controller.E.GETS          1488      0.00%      0.00%
system.ruby.Directory_Controller.NO_B.GETX          416      0.00%      0.00%
system.ruby.Directory_Controller.NO_B.GETS          119      0.00%      0.00%
system.ruby.Directory_Controller.NO_B.PUT            1      0.00%      0.00%
system.ruby.Directory_Controller.NO_B.UnblockS         1384      0.00%      0.00%
system.ruby.Directory_Controller.NO_B.UnblockM         7218      0.00%      0.00%
system.ruby.Directory_Controller.NO_B_X.GETX          283      0.00%      0.00%
system.ruby.Directory_Controller.NO_B_X.GETS            3      0.00%      0.00%
system.ruby.Directory_Controller.NO_B_X.UnblockS           12      0.00%      0.00%
system.ruby.Directory_Controller.NO_B_X.UnblockM          404      0.00%      0.00%
system.ruby.Directory_Controller.NO_B_S.GETX            4      0.00%      0.00%
system.ruby.Directory_Controller.NO_B_S.GETS           38      0.00%      0.00%
system.ruby.Directory_Controller.NO_B_S.UnblockS           62      0.00%      0.00%
system.ruby.Directory_Controller.NO_B_S.UnblockM           57      0.00%      0.00%
system.ruby.Directory_Controller.NO_B_S_W.GETX            9      0.00%      0.00%
system.ruby.Directory_Controller.NO_B_S_W.GETS            3      0.00%      0.00%
system.ruby.Directory_Controller.NO_B_S_W.UnblockS          157      0.00%      0.00%
system.ruby.Directory_Controller.NO_B_S_W.All_Unblocks          119      0.00%      0.00%
system.ruby.Directory_Controller.NO_B_W.GETS           98      0.00%      0.00%
system.ruby.Directory_Controller.NO_B_W.Memory_Data         3223      0.00%      0.00%
system.ruby.Directory_Controller.WB.Writeback_Exclusive_Dirty          790      0.00%      0.00%
system.ruby.Directory_Controller.WB_E_W.Memory_Ack          790      0.00%      0.00%

---------- End Simulation Statistics   ----------
