
---------- Begin Simulation Statistics ----------
sim_seconds                                  0.001231                       # Number of seconds simulated
sim_ticks                                  1231417500                       # Number of ticks simulated
final_tick                                 1231417500                       # Number of ticks from beginning of simulation (restored from checkpoints and never reset)
sim_freq                                 1000000000000                       # Frequency of simulated ticks
host_inst_rate                                  22068                       # Simulator instruction rate (inst/s)
host_op_rate                                    42422                       # Simulator op (including micro ops) rate (op/s)
host_tick_rate                               95316093                       # Simulator tick rate (ticks/s)
host_mem_usage                                4537004                       # Number of bytes of host memory used
host_seconds                                    12.92                       # Real time elapsed on the host
sim_insts                                      285107                       # Number of instructions simulated
sim_ops                                        548056                       # Number of ops (including micro ops) simulated
system.voltage_domain.voltage                       1                       # Voltage in Volts
system.clk_domain.clock                          1000                       # Clock period in ticks
system.mem_ctrls.clk_domain.clock                2500                       # Clock period in ticks
system.dev_mem_ctrls.bytes_read::ruby.dev_dir_cntrl0      7176192                       # Number of bytes read from this memory
system.dev_mem_ctrls.bytes_read::total        7176192                       # Number of bytes read from this memory
system.dev_mem_ctrls.bytes_written::ruby.dev_dir_cntrl0      7176192                       # Number of bytes written to this memory
system.dev_mem_ctrls.bytes_written::total      7176192                       # Number of bytes written to this memory
system.dev_mem_ctrls.num_reads::ruby.dev_dir_cntrl0        56064                       # Number of read requests responded to by this memory
system.dev_mem_ctrls.num_reads::total           56064                       # Number of read requests responded to by this memory
system.dev_mem_ctrls.num_writes::ruby.dev_dir_cntrl0        56064                       # Number of write requests responded to by this memory
system.dev_mem_ctrls.num_writes::total          56064                       # Number of write requests responded to by this memory
system.dev_mem_ctrls.bw_read::ruby.dev_dir_cntrl0   5827586501                       # Total read bandwidth from this memory (bytes/s)
system.dev_mem_ctrls.bw_read::total        5827586501                       # Total read bandwidth from this memory (bytes/s)
system.dev_mem_ctrls.bw_write::ruby.dev_dir_cntrl0   5827586501                       # Write bandwidth from this memory (bytes/s)
system.dev_mem_ctrls.bw_write::total       5827586501                       # Write bandwidth from this memory (bytes/s)
system.dev_mem_ctrls.bw_total::ruby.dev_dir_cntrl0  11655173002                       # Total bandwidth to/from this memory (bytes/s)
system.dev_mem_ctrls.bw_total::total      11655173002                       # Total bandwidth to/from this memory (bytes/s)
system.dev_mem_ctrls.memReq                    112128                       # Total number of memory requests
system.dev_mem_ctrls.memRead                    56064                       # Number of memory reads
system.dev_mem_ctrls.memWrite                   56064                       # Number of memory writes
system.dev_mem_ctrls.memRefresh                  5512                       # Number of memory refreshes
system.dev_mem_ctrls.memWaitCycles            5349530                       # Delay stalled at the head of the bank queue
system.dev_mem_ctrls.memInputQ                  39387                       # Delay in the input queue
system.dev_mem_ctrls.memBankQ                 4125918                       # Delay behind the head of the bank queue
system.dev_mem_ctrls.totalStalls              9514835                       # Total number of stall cycles
system.dev_mem_ctrls.stallsPerReq           84.856905                       # Expected number of stall cycles per request
system.dev_mem_ctrls.memBankBusy               819302                       # memory stalls due to busy bank
system.dev_mem_ctrls.memBusBusy               1535190                       # memory stalls due to busy bus
system.dev_mem_ctrls.memDataBusBusy            271554                       # memory stalls due to read read turnaround
system.dev_mem_ctrls.memArbWait               1210699                       # memory stalls due to arbitration
system.dev_mem_ctrls.memNotOld                1512785                       # memory stalls due to anti starvation
system.dev_mem_ctrls.memBankCount        |        3504      3.12%      3.12% |        3504      3.12%      6.25% |        3504      3.12%      9.38% |        3504      3.12%     12.50% |        3504      3.12%     15.62% |        3504      3.12%     18.75% |        3504      3.12%     21.88% |        3504      3.12%     25.00% |        3504      3.12%     28.12% |        3504      3.12%     31.25% |        3504      3.12%     34.38% |        3504      3.12%     37.50% |        3504      3.12%     40.62% |        3504      3.12%     43.75% |        3504      3.12%     46.88% |        3504      3.12%     50.00% |        3504      3.12%     53.12% |        3504      3.12%     56.25% |        3504      3.12%     59.38% |        3504      3.12%     62.50% |        3504      3.12%     65.62% |        3504      3.12%     68.75% |        3504      3.12%     71.88% |        3504      3.12%     75.00% |        3504      3.12%     78.12% |        3504      3.12%     81.25% |        3504      3.12%     84.38% |        3504      3.12%     87.50% |        3504      3.12%     90.62% |        3504      3.12%     93.75% |        3504      3.12%     96.88% |        3504      3.12%    100.00% # Number of accesses per bank
system.dev_mem_ctrls.memBankCount::total       112128                       # Number of accesses per bank
system.mem_ctrls.bytes_read::ruby.dir_cntrl0      7097216                       # Number of bytes read from this memory
system.mem_ctrls.bytes_read::total            7097216                       # Number of bytes read from this memory
system.mem_ctrls.bytes_written::ruby.dir_cntrl0      7178112                       # Number of bytes written to this memory
system.mem_ctrls.bytes_written::total         7178112                       # Number of bytes written to this memory
system.mem_ctrls.num_reads::ruby.dir_cntrl0        55447                       # Number of read requests responded to by this memory
system.mem_ctrls.num_reads::total               55447                       # Number of read requests responded to by this memory
system.mem_ctrls.num_writes::ruby.dir_cntrl0        56079                       # Number of write requests responded to by this memory
system.mem_ctrls.num_writes::total              56079                       # Number of write requests responded to by this memory
system.mem_ctrls.bw_read::ruby.dir_cntrl0   5763452282                       # Total read bandwidth from this memory (bytes/s)
system.mem_ctrls.bw_read::total            5763452282                       # Total read bandwidth from this memory (bytes/s)
system.mem_ctrls.bw_write::ruby.dir_cntrl0   5829145680                       # Write bandwidth from this memory (bytes/s)
system.mem_ctrls.bw_write::total           5829145680                       # Write bandwidth from this memory (bytes/s)
system.mem_ctrls.bw_total::ruby.dir_cntrl0  11592597961                       # Total bandwidth to/from this memory (bytes/s)
system.mem_ctrls.bw_total::total          11592597961                       # Total bandwidth to/from this memory (bytes/s)
system.mem_ctrls.memReq                        111526                       # Total number of memory requests
system.mem_ctrls.memRead                        55447                       # Number of memory reads
system.mem_ctrls.memWrite                       56079                       # Number of memory writes
system.mem_ctrls.memRefresh                      6782                       # Number of memory refreshes
system.mem_ctrls.memWaitCycles                3938692                       # Delay stalled at the head of the bank queue
system.mem_ctrls.memInputQ                      20267                       # Delay in the input queue
system.mem_ctrls.memBankQ                     3091899                       # Delay behind the head of the bank queue
system.mem_ctrls.totalStalls                  7050858                       # Total number of stall cycles
system.mem_ctrls.stallsPerReq               63.221652                       # Expected number of stall cycles per request
system.mem_ctrls.memBankBusy                   729169                       # memory stalls due to busy bank
system.mem_ctrls.memBusBusy                   1107544                       # memory stalls due to busy bus
system.mem_ctrls.memDataBusBusy                315692                       # memory stalls due to read read turnaround
system.mem_ctrls.memArbWait                    746586                       # memory stalls due to arbitration
system.mem_ctrls.memNotOld                    1039701                       # memory stalls due to anti starvation
system.mem_ctrls.memBankCount            |        2928      2.63%      2.63% |        3524      3.16%      5.79% |        3525      3.16%      8.95% |        3522      3.16%     12.10% |        3521      3.16%     15.26% |        3516      3.15%     18.41% |        3517      3.15%     21.57% |        3516      3.15%     24.72% |        3518      3.15%     27.87% |        3517      3.15%     31.03% |        3517      3.15%     34.18% |        3518      3.15%     37.34% |        3517      3.15%     40.49% |        3522      3.16%     43.65% |        3520      3.16%     46.80% |        3526      3.16%     49.97% |        2917      2.62%     52.58% |        3528      3.16%     55.74% |        3531      3.17%     58.91% |        3527      3.16%     62.07% |        3523      3.16%     65.23% |        3524      3.16%     68.39% |        3525      3.16%     71.55% |        3526      3.16%     74.71% |        3530      3.17%     77.88% |        3520      3.16%     81.03% |        3521      3.16%     84.19% |        3523      3.16%     87.35% |        3526      3.16%     90.51% |        3531      3.17%     93.68% |        3528      3.16%     96.84% |        3522      3.16%    100.00% # Number of accesses per bank
system.mem_ctrls.memBankCount::total           111526                       # Number of accesses per bank
system.ruby_clk_domain.clock                      500                       # Clock period in ticks
system.ruby.phys_mem.bytes_read::cpu.inst      3044456                       # Number of bytes read from this memory
system.ruby.phys_mem.bytes_read::cpu.data       406410                       # Number of bytes read from this memory
system.ruby.phys_mem.bytes_read::gpu.ce      14352384                       # Number of bytes read from this memory
system.ruby.phys_mem.bytes_read::total       17803250                       # Number of bytes read from this memory
system.ruby.phys_mem.bytes_inst_read::cpu.inst      3044456                       # Number of instructions bytes read from this memory
system.ruby.phys_mem.bytes_inst_read::total      3044456                       # Number of instructions bytes read from this memory
system.ruby.phys_mem.bytes_written::cpu.data       287031                       # Number of bytes written to this memory
system.ruby.phys_mem.bytes_written::gpu.ce     14352384                       # Number of bytes written to this memory
system.ruby.phys_mem.bytes_written::total     14639415                       # Number of bytes written to this memory
system.ruby.phys_mem.num_reads::cpu.inst       380557                       # Number of read requests responded to by this memory
system.ruby.phys_mem.num_reads::cpu.data        63379                       # Number of read requests responded to by this memory
system.ruby.phys_mem.num_reads::gpu.ce         112139                       # Number of read requests responded to by this memory
system.ruby.phys_mem.num_reads::total          556075                       # Number of read requests responded to by this memory
system.ruby.phys_mem.num_writes::cpu.data        43631                       # Number of write requests responded to by this memory
system.ruby.phys_mem.num_writes::gpu.ce        112139                       # Number of write requests responded to by this memory
system.ruby.phys_mem.num_writes::total         155770                       # Number of write requests responded to by this memory
system.ruby.phys_mem.bw_read::cpu.inst     2472318284                       # Total read bandwidth from this memory (bytes/s)
system.ruby.phys_mem.bw_read::cpu.data      330034290                       # Total read bandwidth from this memory (bytes/s)
system.ruby.phys_mem.bw_read::gpu.ce      11655173002                       # Total read bandwidth from this memory (bytes/s)
system.ruby.phys_mem.bw_read::total       14457525575                       # Total read bandwidth from this memory (bytes/s)
system.ruby.phys_mem.bw_inst_read::cpu.inst   2472318284                       # Instruction read bandwidth from this memory (bytes/s)
system.ruby.phys_mem.bw_inst_read::total   2472318284                       # Instruction read bandwidth from this memory (bytes/s)
system.ruby.phys_mem.bw_write::cpu.data     233089915                       # Write bandwidth from this memory (bytes/s)
system.ruby.phys_mem.bw_write::gpu.ce     11655173002                       # Write bandwidth from this memory (bytes/s)
system.ruby.phys_mem.bw_write::total      11888262917                       # Write bandwidth from this memory (bytes/s)
system.ruby.phys_mem.bw_total::cpu.inst    2472318284                       # Total bandwidth to/from this memory (bytes/s)
system.ruby.phys_mem.bw_total::cpu.data     563124204                       # Total bandwidth to/from this memory (bytes/s)
system.ruby.phys_mem.bw_total::gpu.ce     23310346004                       # Total bandwidth to/from this memory (bytes/s)
system.ruby.phys_mem.bw_total::total      26345788492                       # Total bandwidth to/from this memory (bytes/s)
system.cpu_voltage_domain.voltage                   1                       # Voltage in Volts
system.cpu_clk_domain.clock                       500                       # Clock period in ticks
system.cpu.apic_clk_domain.clock                 8000                       # Clock period in ticks
system.cpu.workload.num_syscalls                   48                       # Number of system calls
system.cpu.numCycles                          2462835                       # number of cpu cycles simulated
system.cpu.numWorkItemsStarted                      0                       # number of work items this cpu started
system.cpu.numWorkItemsCompleted                    0                       # number of work items this cpu completed
system.cpu.committedInsts                      285107                       # Number of instructions committed
system.cpu.committedOps                        548056                       # Number of ops (including micro ops) committed
system.cpu.num_int_alu_accesses                538444                       # Number of integer alu accesses
system.cpu.num_fp_alu_accesses                  10475                       # Number of float alu accesses
system.cpu.num_func_calls                        9918                       # number of times a function call or return occured
system.cpu.num_conditional_control_insts        47658                       # number of instructions that are conditional controls
system.cpu.num_int_insts                       538444                       # number of integer instructions
system.cpu.num_fp_insts                         10475                       # number of float instructions
system.cpu.num_int_register_reads             1038416                       # number of times the integer registers were read
system.cpu.num_int_register_writes             434948                       # number of times the integer registers were written
system.cpu.num_fp_register_reads                17506                       # number of times the floating registers were read
system.cpu.num_fp_register_writes                8362                       # number of times the floating registers were written
system.cpu.num_cc_register_reads               323334                       # number of times the CC registers were read
system.cpu.num_cc_register_writes              185905                       # number of times the CC registers were written
system.cpu.num_mem_refs                        107009                       # number of memory refs
system.cpu.num_load_insts                       63378                       # Number of load instructions
system.cpu.num_store_insts                      43631                       # Number of store instructions
system.cpu.num_idle_cycles               1318794.044929                       # Number of idle cycles
system.cpu.num_busy_cycles               1144040.955071                       # Number of busy cycles
system.cpu.not_idle_fraction                 0.464522                       # Percentage of non-idle cycles
system.cpu.idle_fraction                     0.535478                       # Percentage of idle cycles
system.cpu.Branches                             62515                       # Number of branches fetched
system.cpu.op_class::No_OpClass                  2083      0.38%      0.38% # Class of executed instruction
system.cpu.op_class::IntAlu                    429994     78.46%     78.84% # Class of executed instruction
system.cpu.op_class::IntMult                      756      0.14%     78.98% # Class of executed instruction
system.cpu.op_class::IntDiv                      1366      0.25%     79.23% # Class of executed instruction
system.cpu.op_class::FloatAdd                    6848      1.25%     80.47% # Class of executed instruction
system.cpu.op_class::FloatCmp                       0      0.00%     80.47% # Class of executed instruction
system.cpu.op_class::FloatCvt                       0      0.00%     80.47% # Class of executed instruction
system.cpu.op_class::FloatMult                      0      0.00%     80.47% # Class of executed instruction
system.cpu.op_class::FloatDiv                       0      0.00%     80.47% # Class of executed instruction
system.cpu.op_class::FloatSqrt                      0      0.00%     80.47% # Class of executed instruction
system.cpu.op_class::SimdAdd                        0      0.00%     80.47% # Class of executed instruction
system.cpu.op_class::SimdAddAcc                     0      0.00%     80.47% # Class of executed instruction
system.cpu.op_class::SimdAlu                        0      0.00%     80.47% # Class of executed instruction
system.cpu.op_class::SimdCmp                        0      0.00%     80.47% # Class of executed instruction
system.cpu.op_class::SimdCvt                        0      0.00%     80.47% # Class of executed instruction
system.cpu.op_class::SimdMisc                       0      0.00%     80.47% # Class of executed instruction
system.cpu.op_class::SimdMult                       0      0.00%     80.47% # Class of executed instruction
system.cpu.op_class::SimdMultAcc                    0      0.00%     80.47% # Class of executed instruction
system.cpu.op_class::SimdShift                      0      0.00%     80.47% # Class of executed instruction
system.cpu.op_class::SimdShiftAcc                   0      0.00%     80.47% # Class of executed instruction
system.cpu.op_class::SimdSqrt                       0      0.00%     80.47% # Class of executed instruction
system.cpu.op_class::SimdFloatAdd                   0      0.00%     80.47% # Class of executed instruction
system.cpu.op_class::SimdFloatAlu                   0      0.00%     80.47% # Class of executed instruction
system.cpu.op_class::SimdFloatCmp                   0      0.00%     80.47% # Class of executed instruction
system.cpu.op_class::SimdFloatCvt                   0      0.00%     80.47% # Class of executed instruction
system.cpu.op_class::SimdFloatDiv                   0      0.00%     80.47% # Class of executed instruction
system.cpu.op_class::SimdFloatMisc                  0      0.00%     80.47% # Class of executed instruction
system.cpu.op_class::SimdFloatMult                  0      0.00%     80.47% # Class of executed instruction
system.cpu.op_class::SimdFloatMultAcc               0      0.00%     80.47% # Class of executed instruction
system.cpu.op_class::SimdFloatSqrt                  0      0.00%     80.47% # Class of executed instruction
system.cpu.op_class::MemRead                    63378     11.56%     92.04% # Class of executed instruction
system.cpu.op_class::MemWrite                   43631      7.96%    100.00% # Class of executed instruction
system.cpu.op_class::IprAccess                      0      0.00%    100.00% # Class of executed instruction
system.cpu.op_class::InstPrefetch                   0      0.00%    100.00% # Class of executed instruction
system.cpu.op_class::total                     548056                       # Class of executed instruction
system.gpu.clk_domain.voltage_domain.voltage            1                       # Voltage in Volts
system.gpu.clk_domain.clock                      1429                       # Clock period in ticks
system.gpu.dram_wrapper.clk_domain.clock          541                       # Clock period in ticks
system.gpu.icnt_wrapper.clk_domain.clock         2858                       # Clock period in ticks
system.ruby.outstanding_req_hist::bucket_size            8                      
system.ruby.outstanding_req_hist::max_bucket           79                      
system.ruby.outstanding_req_hist::samples       711845                      
system.ruby.outstanding_req_hist::mean      16.451588                      
system.ruby.outstanding_req_hist::gmean      3.345326                      
system.ruby.outstanding_req_hist::stdev     24.698918                      
system.ruby.outstanding_req_hist         |      488255     68.59%     68.59% |        2555      0.36%     68.95% |       15793      2.22%     71.17% |       32712      4.60%     75.76% |       20480      2.88%     78.64% |       13535      1.90%     80.54% |       11971      1.68%     82.22% |       11841      1.66%     83.89% |      114703     16.11%    100.00% |           0      0.00%    100.00%
system.ruby.outstanding_req_hist::total        711845                      
system.ruby.latency_hist::bucket_size             256                      
system.ruby.latency_hist::max_bucket             2559                      
system.ruby.latency_hist::samples              711845                      
system.ruby.latency_hist::mean             169.357130                      
system.ruby.latency_hist::gmean              6.975686                      
system.ruby.latency_hist::stdev            293.630190                      
system.ruby.latency_hist                 |      527426     74.09%     74.09% |       83809     11.77%     85.87% |       49571      6.96%     92.83% |       35376      4.97%     97.80% |       14203      2.00%     99.79% |        1459      0.20%    100.00% |           1      0.00%    100.00% |           0      0.00%    100.00% |           0      0.00%    100.00% |           0      0.00%    100.00%
system.ruby.latency_hist::total                711845                      
system.ruby.hit_latency_hist::bucket_size          256                      
system.ruby.hit_latency_hist::max_bucket         2559                      
system.ruby.hit_latency_hist::samples          710724                      
system.ruby.hit_latency_hist::mean         169.395262                      
system.ruby.hit_latency_hist::gmean          6.942371                      
system.ruby.hit_latency_hist::stdev        293.860048                      
system.ruby.hit_latency_hist             |      526305     74.05%     74.05% |       83809     11.79%     85.84% |       49571      6.97%     92.82% |       35376      4.98%     97.80% |       14203      2.00%     99.79% |        1459      0.21%    100.00% |           1      0.00%    100.00% |           0      0.00%    100.00% |           0      0.00%    100.00% |           0      0.00%    100.00%
system.ruby.hit_latency_hist::total            710724                      
system.ruby.miss_latency_hist::bucket_size           32                      
system.ruby.miss_latency_hist::max_bucket          319                      
system.ruby.miss_latency_hist::samples           1121                      
system.ruby.miss_latency_hist::mean        145.181088                      
system.ruby.miss_latency_hist::gmean       145.129840                      
system.ruby.miss_latency_hist::stdev         4.130055                      
system.ruby.miss_latency_hist            |           0      0.00%      0.00% |           0      0.00%      0.00% |           0      0.00%      0.00% |           0      0.00%      0.00% |        1110     99.02%     99.02% |           9      0.80%     99.82% |           2      0.18%    100.00% |           0      0.00%    100.00% |           0      0.00%    100.00% |           0      0.00%    100.00%
system.ruby.miss_latency_hist::total             1121                      
system.gpu.shader_mmu.numPagefaults                 0                       # Number of Pagefaults
system.gpu.shader_mmu.numPagewalks              10553                       # Number of Pagewalks
system.gpu.shader_mmu.totalRequests             10553                       # Total number of requests
system.gpu.shader_mmu.l2hits                        0                       # Hits in the shared L2
system.gpu.shader_mmu.prefetchHits                  0                       # Number of prefetch hits
system.gpu.shader_mmu.numPrefetches                 0                       # Number of prefetchs
system.gpu.shader_mmu.prefetchFaults                0                       # Number of faults caused by prefetches
system.gpu.shader_mmu.pagefaultLatency::samples            0                       # Latency to complete the pagefault
system.gpu.shader_mmu.pagefaultLatency::mean          nan                       # Latency to complete the pagefault
system.gpu.shader_mmu.pagefaultLatency::gmean          nan                       # Latency to complete the pagefault
system.gpu.shader_mmu.pagefaultLatency::stdev          nan                       # Latency to complete the pagefault
system.gpu.shader_mmu.pagefaultLatency::0            0                       # Latency to complete the pagefault
system.gpu.shader_mmu.pagefaultLatency::1            0                       # Latency to complete the pagefault
system.gpu.shader_mmu.pagefaultLatency::2            0                       # Latency to complete the pagefault
system.gpu.shader_mmu.pagefaultLatency::3            0                       # Latency to complete the pagefault
system.gpu.shader_mmu.pagefaultLatency::4            0                       # Latency to complete the pagefault
system.gpu.shader_mmu.pagefaultLatency::5            0                       # Latency to complete the pagefault
system.gpu.shader_mmu.pagefaultLatency::6            0                       # Latency to complete the pagefault
system.gpu.shader_mmu.pagefaultLatency::7            0                       # Latency to complete the pagefault
system.gpu.shader_mmu.pagefaultLatency::8            0                       # Latency to complete the pagefault
system.gpu.shader_mmu.pagefaultLatency::9            0                       # Latency to complete the pagefault
system.gpu.shader_mmu.pagefaultLatency::10            0                       # Latency to complete the pagefault
system.gpu.shader_mmu.pagefaultLatency::11            0                       # Latency to complete the pagefault
system.gpu.shader_mmu.pagefaultLatency::12            0                       # Latency to complete the pagefault
system.gpu.shader_mmu.pagefaultLatency::13            0                       # Latency to complete the pagefault
system.gpu.shader_mmu.pagefaultLatency::14            0                       # Latency to complete the pagefault
system.gpu.shader_mmu.pagefaultLatency::15            0                       # Latency to complete the pagefault
system.gpu.shader_mmu.pagefaultLatency::16            0                       # Latency to complete the pagefault
system.gpu.shader_mmu.pagefaultLatency::17            0                       # Latency to complete the pagefault
system.gpu.shader_mmu.pagefaultLatency::18            0                       # Latency to complete the pagefault
system.gpu.shader_mmu.pagefaultLatency::19            0                       # Latency to complete the pagefault
system.gpu.shader_mmu.pagefaultLatency::20            0                       # Latency to complete the pagefault
system.gpu.shader_mmu.pagefaultLatency::21            0                       # Latency to complete the pagefault
system.gpu.shader_mmu.pagefaultLatency::22            0                       # Latency to complete the pagefault
system.gpu.shader_mmu.pagefaultLatency::23            0                       # Latency to complete the pagefault
system.gpu.shader_mmu.pagefaultLatency::24            0                       # Latency to complete the pagefault
system.gpu.shader_mmu.pagefaultLatency::25            0                       # Latency to complete the pagefault
system.gpu.shader_mmu.pagefaultLatency::26            0                       # Latency to complete the pagefault
system.gpu.shader_mmu.pagefaultLatency::27            0                       # Latency to complete the pagefault
system.gpu.shader_mmu.pagefaultLatency::28            0                       # Latency to complete the pagefault
system.gpu.shader_mmu.pagefaultLatency::29            0                       # Latency to complete the pagefault
system.gpu.shader_mmu.pagefaultLatency::30            0                       # Latency to complete the pagefault
system.gpu.shader_mmu.pagefaultLatency::31            0                       # Latency to complete the pagefault
system.gpu.shader_mmu.pagefaultLatency::total            0                       # Latency to complete the pagefault
system.gpu.shader_mmu.concurrentWalks::samples        10553                       # Number of outstanding walks
system.gpu.shader_mmu.concurrentWalks::mean            0                       # Number of outstanding walks
system.gpu.shader_mmu.concurrentWalks::gmean            0                       # Number of outstanding walks
system.gpu.shader_mmu.concurrentWalks::stdev            0                       # Number of outstanding walks
system.gpu.shader_mmu.concurrentWalks::0        10553    100.00%    100.00% # Number of outstanding walks
system.gpu.shader_mmu.concurrentWalks::1            0      0.00%    100.00% # Number of outstanding walks
system.gpu.shader_mmu.concurrentWalks::2            0      0.00%    100.00% # Number of outstanding walks
system.gpu.shader_mmu.concurrentWalks::3            0      0.00%    100.00% # Number of outstanding walks
system.gpu.shader_mmu.concurrentWalks::4            0      0.00%    100.00% # Number of outstanding walks
system.gpu.shader_mmu.concurrentWalks::5            0      0.00%    100.00% # Number of outstanding walks
system.gpu.shader_mmu.concurrentWalks::6            0      0.00%    100.00% # Number of outstanding walks
system.gpu.shader_mmu.concurrentWalks::7            0      0.00%    100.00% # Number of outstanding walks
system.gpu.shader_mmu.concurrentWalks::8            0      0.00%    100.00% # Number of outstanding walks
system.gpu.shader_mmu.concurrentWalks::9            0      0.00%    100.00% # Number of outstanding walks
system.gpu.shader_mmu.concurrentWalks::10            0      0.00%    100.00% # Number of outstanding walks
system.gpu.shader_mmu.concurrentWalks::11            0      0.00%    100.00% # Number of outstanding walks
system.gpu.shader_mmu.concurrentWalks::12            0      0.00%    100.00% # Number of outstanding walks
system.gpu.shader_mmu.concurrentWalks::13            0      0.00%    100.00% # Number of outstanding walks
system.gpu.shader_mmu.concurrentWalks::14            0      0.00%    100.00% # Number of outstanding walks
system.gpu.shader_mmu.concurrentWalks::15            0      0.00%    100.00% # Number of outstanding walks
system.gpu.shader_mmu.concurrentWalks::total        10553                       # Number of outstanding walks
system.gpu.shader_mmu.pagewalkLatency::samples        10553                       # Latency to complete the pagewalk
system.gpu.shader_mmu.pagewalkLatency::mean            0                       # Latency to complete the pagewalk
system.gpu.shader_mmu.pagewalkLatency::gmean            0                       # Latency to complete the pagewalk
system.gpu.shader_mmu.pagewalkLatency::stdev            0                       # Latency to complete the pagewalk
system.gpu.shader_mmu.pagewalkLatency::0        10553    100.00%    100.00% # Latency to complete the pagewalk
system.gpu.shader_mmu.pagewalkLatency::1            0      0.00%    100.00% # Latency to complete the pagewalk
system.gpu.shader_mmu.pagewalkLatency::2            0      0.00%    100.00% # Latency to complete the pagewalk
system.gpu.shader_mmu.pagewalkLatency::3            0      0.00%    100.00% # Latency to complete the pagewalk
system.gpu.shader_mmu.pagewalkLatency::4            0      0.00%    100.00% # Latency to complete the pagewalk
system.gpu.shader_mmu.pagewalkLatency::5            0      0.00%    100.00% # Latency to complete the pagewalk
system.gpu.shader_mmu.pagewalkLatency::6            0      0.00%    100.00% # Latency to complete the pagewalk
system.gpu.shader_mmu.pagewalkLatency::7            0      0.00%    100.00% # Latency to complete the pagewalk
system.gpu.shader_mmu.pagewalkLatency::8            0      0.00%    100.00% # Latency to complete the pagewalk
system.gpu.shader_mmu.pagewalkLatency::9            0      0.00%    100.00% # Latency to complete the pagewalk
system.gpu.shader_mmu.pagewalkLatency::10            0      0.00%    100.00% # Latency to complete the pagewalk
system.gpu.shader_mmu.pagewalkLatency::11            0      0.00%    100.00% # Latency to complete the pagewalk
system.gpu.shader_mmu.pagewalkLatency::12            0      0.00%    100.00% # Latency to complete the pagewalk
system.gpu.shader_mmu.pagewalkLatency::13            0      0.00%    100.00% # Latency to complete the pagewalk
system.gpu.shader_mmu.pagewalkLatency::14            0      0.00%    100.00% # Latency to complete the pagewalk
system.gpu.shader_mmu.pagewalkLatency::15            0      0.00%    100.00% # Latency to complete the pagewalk
system.gpu.shader_mmu.pagewalkLatency::16            0      0.00%    100.00% # Latency to complete the pagewalk
system.gpu.shader_mmu.pagewalkLatency::17            0      0.00%    100.00% # Latency to complete the pagewalk
system.gpu.shader_mmu.pagewalkLatency::18            0      0.00%    100.00% # Latency to complete the pagewalk
system.gpu.shader_mmu.pagewalkLatency::19            0      0.00%    100.00% # Latency to complete the pagewalk
system.gpu.shader_mmu.pagewalkLatency::20            0      0.00%    100.00% # Latency to complete the pagewalk
system.gpu.shader_mmu.pagewalkLatency::21            0      0.00%    100.00% # Latency to complete the pagewalk
system.gpu.shader_mmu.pagewalkLatency::22            0      0.00%    100.00% # Latency to complete the pagewalk
system.gpu.shader_mmu.pagewalkLatency::23            0      0.00%    100.00% # Latency to complete the pagewalk
system.gpu.shader_mmu.pagewalkLatency::24            0      0.00%    100.00% # Latency to complete the pagewalk
system.gpu.shader_mmu.pagewalkLatency::25            0      0.00%    100.00% # Latency to complete the pagewalk
system.gpu.shader_mmu.pagewalkLatency::26            0      0.00%    100.00% # Latency to complete the pagewalk
system.gpu.shader_mmu.pagewalkLatency::27            0      0.00%    100.00% # Latency to complete the pagewalk
system.gpu.shader_mmu.pagewalkLatency::28            0      0.00%    100.00% # Latency to complete the pagewalk
system.gpu.shader_mmu.pagewalkLatency::29            0      0.00%    100.00% # Latency to complete the pagewalk
system.gpu.shader_mmu.pagewalkLatency::30            0      0.00%    100.00% # Latency to complete the pagewalk
system.gpu.shader_mmu.pagewalkLatency::31            0      0.00%    100.00% # Latency to complete the pagewalk
system.gpu.shader_mmu.pagewalkLatency::total        10553                       # Latency to complete the pagewalk
system.gpu.kernels_started                          0                       # Number of kernels started
system.gpu.kernels_completed                        0                       # Number of kernels completed
system.gpu.ce.device_dtb.hits                       0                       # Number of hits in this TLB
system.gpu.ce.device_dtb.misses                     0                       # Number of misses in this TLB
system.gpu.ce.device_dtb.hitRate                  nan                       # Hit rate for this TLB
system.gpu.ce.host_dtb.hits                    101597                       # Number of hits in this TLB
system.gpu.ce.host_dtb.misses                   10553                       # Number of misses in this TLB
system.gpu.ce.host_dtb.hitRate               0.905903                       # Hit rate for this TLB
system.gpu.shader_cores0.itb.hits                   0                       # Number of hits in this TLB
system.gpu.shader_cores0.itb.misses                 0                       # Number of misses in this TLB
system.gpu.shader_cores0.itb.hitRate              nan                       # Hit rate for this TLB
system.gpu.shader_cores0.local_loads                0                       # Number of loads from local space
system.gpu.shader_cores0.local_stores               0                       # Number of stores to local space
system.gpu.shader_cores0.shared_loads               0                       # Number of loads from shared space
system.gpu.shader_cores0.shared_stores              0                       # Number of stores to shared space
system.gpu.shader_cores0.param_kernel_loads            0                       # Number of loads from kernel parameter space
system.gpu.shader_cores0.param_local_loads            0                       # Number of loads from local parameter space
system.gpu.shader_cores0.param_local_stores            0                       # Number of stores to local parameter space
system.gpu.shader_cores0.const_loads                0                       # Number of loads from constant space
system.gpu.shader_cores0.tex_loads                  0                       # Number of loads from texture space
system.gpu.shader_cores0.global_loads               0                       # Number of loads from global space
system.gpu.shader_cores0.global_stores              0                       # Number of stores to global space
system.gpu.shader_cores0.surf_loads                 0                       # Number of loads from surface space
system.gpu.shader_cores0.generic_loads              0                       # Number of loads from generic spaces (global, shared, local)
system.gpu.shader_cores0.generic_stores             0                       # Number of stores to generic spaces (global, shared, local)
system.gpu.shader_cores0.inst_cache_requests            0                       # Number of instruction cache requests sent
system.gpu.shader_cores0.inst_cache_retries            0                       # Number of instruction cache retries
system.gpu.shader_cores0.inst_counts::0             0                       # Inst counts: 1: ALU, 2: MAD, 3: CTRL, 4: SFU, 5: MEM, 6: TEX, 7: NOP
system.gpu.shader_cores0.inst_counts::1             0                       # Inst counts: 1: ALU, 2: MAD, 3: CTRL, 4: SFU, 5: MEM, 6: TEX, 7: NOP
system.gpu.shader_cores0.inst_counts::2             0                       # Inst counts: 1: ALU, 2: MAD, 3: CTRL, 4: SFU, 5: MEM, 6: TEX, 7: NOP
system.gpu.shader_cores0.inst_counts::3             0                       # Inst counts: 1: ALU, 2: MAD, 3: CTRL, 4: SFU, 5: MEM, 6: TEX, 7: NOP
system.gpu.shader_cores0.inst_counts::4             0                       # Inst counts: 1: ALU, 2: MAD, 3: CTRL, 4: SFU, 5: MEM, 6: TEX, 7: NOP
system.gpu.shader_cores0.inst_counts::5             0                       # Inst counts: 1: ALU, 2: MAD, 3: CTRL, 4: SFU, 5: MEM, 6: TEX, 7: NOP
system.gpu.shader_cores0.inst_counts::6             0                       # Inst counts: 1: ALU, 2: MAD, 3: CTRL, 4: SFU, 5: MEM, 6: TEX, 7: NOP
system.gpu.shader_cores0.inst_counts::7             0                       # Inst counts: 1: ALU, 2: MAD, 3: CTRL, 4: SFU, 5: MEM, 6: TEX, 7: NOP
system.gpu.shader_cores0.activeCycles               0                       # Number of cycles this shader was executing a CTA
system.gpu.shader_cores0.notStalledCycles            0                       # Number of cycles this shader was actually executing at least one instance
system.gpu.shader_cores0.instInstances              0                       # Total instructions executed by all PEs in the core
system.gpu.shader_cores0.instPerCycle             nan                       # Instruction instances per cycle
system.gpu.shader_cores0.kernels_completed            0                       # Number of kernels completed
system.gpu.shader_cores0.lsq.data_tlb.hits            0                       # Number of hits in this TLB
system.gpu.shader_cores0.lsq.data_tlb.misses            0                       # Number of misses in this TLB
system.gpu.shader_cores0.lsq.data_tlb.hitRate          nan                       # Hit rate for this TLB
system.gpu.shader_cores0.lsq.warpInstBufActive::samples            0                       # Histogram of number of active warp inst buffers at a given time
system.gpu.shader_cores0.lsq.warpInstBufActive::mean          nan                       # Histogram of number of active warp inst buffers at a given time
system.gpu.shader_cores0.lsq.warpInstBufActive::gmean          nan                       # Histogram of number of active warp inst buffers at a given time
system.gpu.shader_cores0.lsq.warpInstBufActive::stdev          nan                       # Histogram of number of active warp inst buffers at a given time
system.gpu.shader_cores0.lsq.warpInstBufActive::0            0                       # Histogram of number of active warp inst buffers at a given time
system.gpu.shader_cores0.lsq.warpInstBufActive::1            0                       # Histogram of number of active warp inst buffers at a given time
system.gpu.shader_cores0.lsq.warpInstBufActive::2            0                       # Histogram of number of active warp inst buffers at a given time
system.gpu.shader_cores0.lsq.warpInstBufActive::3            0                       # Histogram of number of active warp inst buffers at a given time
system.gpu.shader_cores0.lsq.warpInstBufActive::4            0                       # Histogram of number of active warp inst buffers at a given time
system.gpu.shader_cores0.lsq.warpInstBufActive::5            0                       # Histogram of number of active warp inst buffers at a given time
system.gpu.shader_cores0.lsq.warpInstBufActive::6            0                       # Histogram of number of active warp inst buffers at a given time
system.gpu.shader_cores0.lsq.warpInstBufActive::7            0                       # Histogram of number of active warp inst buffers at a given time
system.gpu.shader_cores0.lsq.warpInstBufActive::8            0                       # Histogram of number of active warp inst buffers at a given time
system.gpu.shader_cores0.lsq.warpInstBufActive::9            0                       # Histogram of number of active warp inst buffers at a given time
system.gpu.shader_cores0.lsq.warpInstBufActive::10            0                       # Histogram of number of active warp inst buffers at a given time
system.gpu.shader_cores0.lsq.warpInstBufActive::11            0                       # Histogram of number of active warp inst buffers at a given time
system.gpu.shader_cores0.lsq.warpInstBufActive::12            0                       # Histogram of number of active warp inst buffers at a given time
system.gpu.shader_cores0.lsq.warpInstBufActive::13            0                       # Histogram of number of active warp inst buffers at a given time
system.gpu.shader_cores0.lsq.warpInstBufActive::14            0                       # Histogram of number of active warp inst buffers at a given time
system.gpu.shader_cores0.lsq.warpInstBufActive::15            0                       # Histogram of number of active warp inst buffers at a given time
system.gpu.shader_cores0.lsq.warpInstBufActive::16            0                       # Histogram of number of active warp inst buffers at a given time
system.gpu.shader_cores0.lsq.warpInstBufActive::17            0                       # Histogram of number of active warp inst buffers at a given time
system.gpu.shader_cores0.lsq.warpInstBufActive::18            0                       # Histogram of number of active warp inst buffers at a given time
system.gpu.shader_cores0.lsq.warpInstBufActive::19            0                       # Histogram of number of active warp inst buffers at a given time
system.gpu.shader_cores0.lsq.warpInstBufActive::20            0                       # Histogram of number of active warp inst buffers at a given time
system.gpu.shader_cores0.lsq.warpInstBufActive::21            0                       # Histogram of number of active warp inst buffers at a given time
system.gpu.shader_cores0.lsq.warpInstBufActive::22            0                       # Histogram of number of active warp inst buffers at a given time
system.gpu.shader_cores0.lsq.warpInstBufActive::23            0                       # Histogram of number of active warp inst buffers at a given time
system.gpu.shader_cores0.lsq.warpInstBufActive::24            0                       # Histogram of number of active warp inst buffers at a given time
system.gpu.shader_cores0.lsq.warpInstBufActive::25            0                       # Histogram of number of active warp inst buffers at a given time
system.gpu.shader_cores0.lsq.warpInstBufActive::26            0                       # Histogram of number of active warp inst buffers at a given time
system.gpu.shader_cores0.lsq.warpInstBufActive::27            0                       # Histogram of number of active warp inst buffers at a given time
system.gpu.shader_cores0.lsq.warpInstBufActive::28            0                       # Histogram of number of active warp inst buffers at a given time
system.gpu.shader_cores0.lsq.warpInstBufActive::29            0                       # Histogram of number of active warp inst buffers at a given time
system.gpu.shader_cores0.lsq.warpInstBufActive::30            0                       # Histogram of number of active warp inst buffers at a given time
system.gpu.shader_cores0.lsq.warpInstBufActive::31            0                       # Histogram of number of active warp inst buffers at a given time
system.gpu.shader_cores0.lsq.warpInstBufActive::32            0                       # Histogram of number of active warp inst buffers at a given time
system.gpu.shader_cores0.lsq.warpInstBufActive::33            0                       # Histogram of number of active warp inst buffers at a given time
system.gpu.shader_cores0.lsq.warpInstBufActive::34            0                       # Histogram of number of active warp inst buffers at a given time
system.gpu.shader_cores0.lsq.warpInstBufActive::35            0                       # Histogram of number of active warp inst buffers at a given time
system.gpu.shader_cores0.lsq.warpInstBufActive::36            0                       # Histogram of number of active warp inst buffers at a given time
system.gpu.shader_cores0.lsq.warpInstBufActive::37            0                       # Histogram of number of active warp inst buffers at a given time
system.gpu.shader_cores0.lsq.warpInstBufActive::38            0                       # Histogram of number of active warp inst buffers at a given time
system.gpu.shader_cores0.lsq.warpInstBufActive::39            0                       # Histogram of number of active warp inst buffers at a given time
system.gpu.shader_cores0.lsq.warpInstBufActive::40            0                       # Histogram of number of active warp inst buffers at a given time
system.gpu.shader_cores0.lsq.warpInstBufActive::41            0                       # Histogram of number of active warp inst buffers at a given time
system.gpu.shader_cores0.lsq.warpInstBufActive::42            0                       # Histogram of number of active warp inst buffers at a given time
system.gpu.shader_cores0.lsq.warpInstBufActive::43            0                       # Histogram of number of active warp inst buffers at a given time
system.gpu.shader_cores0.lsq.warpInstBufActive::44            0                       # Histogram of number of active warp inst buffers at a given time
system.gpu.shader_cores0.lsq.warpInstBufActive::45            0                       # Histogram of number of active warp inst buffers at a given time
system.gpu.shader_cores0.lsq.warpInstBufActive::46            0                       # Histogram of number of active warp inst buffers at a given time
system.gpu.shader_cores0.lsq.warpInstBufActive::47            0                       # Histogram of number of active warp inst buffers at a given time
system.gpu.shader_cores0.lsq.warpInstBufActive::48            0                       # Histogram of number of active warp inst buffers at a given time
system.gpu.shader_cores0.lsq.warpInstBufActive::49            0                       # Histogram of number of active warp inst buffers at a given time
system.gpu.shader_cores0.lsq.warpInstBufActive::50            0                       # Histogram of number of active warp inst buffers at a given time
system.gpu.shader_cores0.lsq.warpInstBufActive::51            0                       # Histogram of number of active warp inst buffers at a given time
system.gpu.shader_cores0.lsq.warpInstBufActive::52            0                       # Histogram of number of active warp inst buffers at a given time
system.gpu.shader_cores0.lsq.warpInstBufActive::53            0                       # Histogram of number of active warp inst buffers at a given time
system.gpu.shader_cores0.lsq.warpInstBufActive::54            0                       # Histogram of number of active warp inst buffers at a given time
system.gpu.shader_cores0.lsq.warpInstBufActive::55            0                       # Histogram of number of active warp inst buffers at a given time
system.gpu.shader_cores0.lsq.warpInstBufActive::56            0                       # Histogram of number of active warp inst buffers at a given time
system.gpu.shader_cores0.lsq.warpInstBufActive::57            0                       # Histogram of number of active warp inst buffers at a given time
system.gpu.shader_cores0.lsq.warpInstBufActive::58            0                       # Histogram of number of active warp inst buffers at a given time
system.gpu.shader_cores0.lsq.warpInstBufActive::59            0                       # Histogram of number of active warp inst buffers at a given time
system.gpu.shader_cores0.lsq.warpInstBufActive::60            0                       # Histogram of number of active warp inst buffers at a given time
system.gpu.shader_cores0.lsq.warpInstBufActive::61            0                       # Histogram of number of active warp inst buffers at a given time
system.gpu.shader_cores0.lsq.warpInstBufActive::62            0                       # Histogram of number of active warp inst buffers at a given time
system.gpu.shader_cores0.lsq.warpInstBufActive::63            0                       # Histogram of number of active warp inst buffers at a given time
system.gpu.shader_cores0.lsq.warpInstBufActive::64            0                       # Histogram of number of active warp inst buffers at a given time
system.gpu.shader_cores0.lsq.warpInstBufActive::total            0                       # Histogram of number of active warp inst buffers at a given time
system.gpu.shader_cores0.lsq.cacheAccesses            0                       # Average number of concurrent outstanding cache accesses
system.gpu.shader_cores0.lsq.writebackBlockedCycles            0                       # Number of cycles blocked for core writeback stage
system.gpu.shader_cores0.lsq.mshrHitQueued            0                       # Number of hits on blocked lines in MSHRs
system.gpu.shader_cores0.lsq.mshrsFullCycles            0                       # Number of cycles stalled waiting for an MSHR
system.gpu.shader_cores0.lsq.mshrsFullCount            0                       # Number of times MSHRs filled
system.gpu.shader_cores0.lsq.warpCoalescedAccesses::samples            0                       # Number of coalesced accesses per warp instruction
system.gpu.shader_cores0.lsq.warpCoalescedAccesses::mean          nan                       # Number of coalesced accesses per warp instruction
system.gpu.shader_cores0.lsq.warpCoalescedAccesses::gmean          nan                       # Number of coalesced accesses per warp instruction
system.gpu.shader_cores0.lsq.warpCoalescedAccesses::stdev          nan                       # Number of coalesced accesses per warp instruction
system.gpu.shader_cores0.lsq.warpCoalescedAccesses::0            0                       # Number of coalesced accesses per warp instruction
system.gpu.shader_cores0.lsq.warpCoalescedAccesses::1            0                       # Number of coalesced accesses per warp instruction
system.gpu.shader_cores0.lsq.warpCoalescedAccesses::2            0                       # Number of coalesced accesses per warp instruction
system.gpu.shader_cores0.lsq.warpCoalescedAccesses::3            0                       # Number of coalesced accesses per warp instruction
system.gpu.shader_cores0.lsq.warpCoalescedAccesses::4            0                       # Number of coalesced accesses per warp instruction
system.gpu.shader_cores0.lsq.warpCoalescedAccesses::5            0                       # Number of coalesced accesses per warp instruction
system.gpu.shader_cores0.lsq.warpCoalescedAccesses::6            0                       # Number of coalesced accesses per warp instruction
system.gpu.shader_cores0.lsq.warpCoalescedAccesses::7            0                       # Number of coalesced accesses per warp instruction
system.gpu.shader_cores0.lsq.warpCoalescedAccesses::8            0                       # Number of coalesced accesses per warp instruction
system.gpu.shader_cores0.lsq.warpCoalescedAccesses::9            0                       # Number of coalesced accesses per warp instruction
system.gpu.shader_cores0.lsq.warpCoalescedAccesses::10            0                       # Number of coalesced accesses per warp instruction
system.gpu.shader_cores0.lsq.warpCoalescedAccesses::11            0                       # Number of coalesced accesses per warp instruction
system.gpu.shader_cores0.lsq.warpCoalescedAccesses::12            0                       # Number of coalesced accesses per warp instruction
system.gpu.shader_cores0.lsq.warpCoalescedAccesses::13            0                       # Number of coalesced accesses per warp instruction
system.gpu.shader_cores0.lsq.warpCoalescedAccesses::14            0                       # Number of coalesced accesses per warp instruction
system.gpu.shader_cores0.lsq.warpCoalescedAccesses::15            0                       # Number of coalesced accesses per warp instruction
system.gpu.shader_cores0.lsq.warpCoalescedAccesses::16            0                       # Number of coalesced accesses per warp instruction
system.gpu.shader_cores0.lsq.warpCoalescedAccesses::17            0                       # Number of coalesced accesses per warp instruction
system.gpu.shader_cores0.lsq.warpCoalescedAccesses::18            0                       # Number of coalesced accesses per warp instruction
system.gpu.shader_cores0.lsq.warpCoalescedAccesses::19            0                       # Number of coalesced accesses per warp instruction
system.gpu.shader_cores0.lsq.warpCoalescedAccesses::20            0                       # Number of coalesced accesses per warp instruction
system.gpu.shader_cores0.lsq.warpCoalescedAccesses::21            0                       # Number of coalesced accesses per warp instruction
system.gpu.shader_cores0.lsq.warpCoalescedAccesses::22            0                       # Number of coalesced accesses per warp instruction
system.gpu.shader_cores0.lsq.warpCoalescedAccesses::23            0                       # Number of coalesced accesses per warp instruction
system.gpu.shader_cores0.lsq.warpCoalescedAccesses::24            0                       # Number of coalesced accesses per warp instruction
system.gpu.shader_cores0.lsq.warpCoalescedAccesses::25            0                       # Number of coalesced accesses per warp instruction
system.gpu.shader_cores0.lsq.warpCoalescedAccesses::26            0                       # Number of coalesced accesses per warp instruction
system.gpu.shader_cores0.lsq.warpCoalescedAccesses::27            0                       # Number of coalesced accesses per warp instruction
system.gpu.shader_cores0.lsq.warpCoalescedAccesses::28            0                       # Number of coalesced accesses per warp instruction
system.gpu.shader_cores0.lsq.warpCoalescedAccesses::29            0                       # Number of coalesced accesses per warp instruction
system.gpu.shader_cores0.lsq.warpCoalescedAccesses::30            0                       # Number of coalesced accesses per warp instruction
system.gpu.shader_cores0.lsq.warpCoalescedAccesses::31            0                       # Number of coalesced accesses per warp instruction
system.gpu.shader_cores0.lsq.warpCoalescedAccesses::32            0                       # Number of coalesced accesses per warp instruction
system.gpu.shader_cores0.lsq.warpCoalescedAccesses::total            0                       # Number of coalesced accesses per warp instruction
system.gpu.shader_cores0.lsq.warpLatencyRead::samples            0                       # Latency in cycles for whole warp to finish the read
system.gpu.shader_cores0.lsq.warpLatencyRead::mean          nan                       # Latency in cycles for whole warp to finish the read
system.gpu.shader_cores0.lsq.warpLatencyRead::gmean          nan                       # Latency in cycles for whole warp to finish the read
system.gpu.shader_cores0.lsq.warpLatencyRead::stdev          nan                       # Latency in cycles for whole warp to finish the read
system.gpu.shader_cores0.lsq.warpLatencyRead::0            0                       # Latency in cycles for whole warp to finish the read
system.gpu.shader_cores0.lsq.warpLatencyRead::1            0                       # Latency in cycles for whole warp to finish the read
system.gpu.shader_cores0.lsq.warpLatencyRead::2            0                       # Latency in cycles for whole warp to finish the read
system.gpu.shader_cores0.lsq.warpLatencyRead::3            0                       # Latency in cycles for whole warp to finish the read
system.gpu.shader_cores0.lsq.warpLatencyRead::4            0                       # Latency in cycles for whole warp to finish the read
system.gpu.shader_cores0.lsq.warpLatencyRead::5            0                       # Latency in cycles for whole warp to finish the read
system.gpu.shader_cores0.lsq.warpLatencyRead::6            0                       # Latency in cycles for whole warp to finish the read
system.gpu.shader_cores0.lsq.warpLatencyRead::7            0                       # Latency in cycles for whole warp to finish the read
system.gpu.shader_cores0.lsq.warpLatencyRead::8            0                       # Latency in cycles for whole warp to finish the read
system.gpu.shader_cores0.lsq.warpLatencyRead::9            0                       # Latency in cycles for whole warp to finish the read
system.gpu.shader_cores0.lsq.warpLatencyRead::10            0                       # Latency in cycles for whole warp to finish the read
system.gpu.shader_cores0.lsq.warpLatencyRead::11            0                       # Latency in cycles for whole warp to finish the read
system.gpu.shader_cores0.lsq.warpLatencyRead::12            0                       # Latency in cycles for whole warp to finish the read
system.gpu.shader_cores0.lsq.warpLatencyRead::13            0                       # Latency in cycles for whole warp to finish the read
system.gpu.shader_cores0.lsq.warpLatencyRead::14            0                       # Latency in cycles for whole warp to finish the read
system.gpu.shader_cores0.lsq.warpLatencyRead::15            0                       # Latency in cycles for whole warp to finish the read
system.gpu.shader_cores0.lsq.warpLatencyRead::total            0                       # Latency in cycles for whole warp to finish the read
system.gpu.shader_cores0.lsq.warpLatencyWrite::samples            0                       # Latency in cycles for whole warp to finish the write
system.gpu.shader_cores0.lsq.warpLatencyWrite::mean          nan                       # Latency in cycles for whole warp to finish the write
system.gpu.shader_cores0.lsq.warpLatencyWrite::gmean          nan                       # Latency in cycles for whole warp to finish the write
system.gpu.shader_cores0.lsq.warpLatencyWrite::stdev          nan                       # Latency in cycles for whole warp to finish the write
system.gpu.shader_cores0.lsq.warpLatencyWrite::0            0                       # Latency in cycles for whole warp to finish the write
system.gpu.shader_cores0.lsq.warpLatencyWrite::1            0                       # Latency in cycles for whole warp to finish the write
system.gpu.shader_cores0.lsq.warpLatencyWrite::2            0                       # Latency in cycles for whole warp to finish the write
system.gpu.shader_cores0.lsq.warpLatencyWrite::3            0                       # Latency in cycles for whole warp to finish the write
system.gpu.shader_cores0.lsq.warpLatencyWrite::4            0                       # Latency in cycles for whole warp to finish the write
system.gpu.shader_cores0.lsq.warpLatencyWrite::5            0                       # Latency in cycles for whole warp to finish the write
system.gpu.shader_cores0.lsq.warpLatencyWrite::6            0                       # Latency in cycles for whole warp to finish the write
system.gpu.shader_cores0.lsq.warpLatencyWrite::7            0                       # Latency in cycles for whole warp to finish the write
system.gpu.shader_cores0.lsq.warpLatencyWrite::8            0                       # Latency in cycles for whole warp to finish the write
system.gpu.shader_cores0.lsq.warpLatencyWrite::9            0                       # Latency in cycles for whole warp to finish the write
system.gpu.shader_cores0.lsq.warpLatencyWrite::10            0                       # Latency in cycles for whole warp to finish the write
system.gpu.shader_cores0.lsq.warpLatencyWrite::11            0                       # Latency in cycles for whole warp to finish the write
system.gpu.shader_cores0.lsq.warpLatencyWrite::12            0                       # Latency in cycles for whole warp to finish the write
system.gpu.shader_cores0.lsq.warpLatencyWrite::13            0                       # Latency in cycles for whole warp to finish the write
system.gpu.shader_cores0.lsq.warpLatencyWrite::14            0                       # Latency in cycles for whole warp to finish the write
system.gpu.shader_cores0.lsq.warpLatencyWrite::15            0                       # Latency in cycles for whole warp to finish the write
system.gpu.shader_cores0.lsq.warpLatencyWrite::total            0                       # Latency in cycles for whole warp to finish the write
system.gpu.shader_cores0.lsq.warpLatencyFence::samples            0                       # Latency in cycles for whole warp to finish the fence
system.gpu.shader_cores0.lsq.warpLatencyFence::mean          nan                       # Latency in cycles for whole warp to finish the fence
system.gpu.shader_cores0.lsq.warpLatencyFence::gmean          nan                       # Latency in cycles for whole warp to finish the fence
system.gpu.shader_cores0.lsq.warpLatencyFence::stdev          nan                       # Latency in cycles for whole warp to finish the fence
system.gpu.shader_cores0.lsq.warpLatencyFence::0            0                       # Latency in cycles for whole warp to finish the fence
system.gpu.shader_cores0.lsq.warpLatencyFence::1            0                       # Latency in cycles for whole warp to finish the fence
system.gpu.shader_cores0.lsq.warpLatencyFence::2            0                       # Latency in cycles for whole warp to finish the fence
system.gpu.shader_cores0.lsq.warpLatencyFence::3            0                       # Latency in cycles for whole warp to finish the fence
system.gpu.shader_cores0.lsq.warpLatencyFence::4            0                       # Latency in cycles for whole warp to finish the fence
system.gpu.shader_cores0.lsq.warpLatencyFence::5            0                       # Latency in cycles for whole warp to finish the fence
system.gpu.shader_cores0.lsq.warpLatencyFence::6            0                       # Latency in cycles for whole warp to finish the fence
system.gpu.shader_cores0.lsq.warpLatencyFence::7            0                       # Latency in cycles for whole warp to finish the fence
system.gpu.shader_cores0.lsq.warpLatencyFence::8            0                       # Latency in cycles for whole warp to finish the fence
system.gpu.shader_cores0.lsq.warpLatencyFence::9            0                       # Latency in cycles for whole warp to finish the fence
system.gpu.shader_cores0.lsq.warpLatencyFence::10            0                       # Latency in cycles for whole warp to finish the fence
system.gpu.shader_cores0.lsq.warpLatencyFence::11            0                       # Latency in cycles for whole warp to finish the fence
system.gpu.shader_cores0.lsq.warpLatencyFence::12            0                       # Latency in cycles for whole warp to finish the fence
system.gpu.shader_cores0.lsq.warpLatencyFence::13            0                       # Latency in cycles for whole warp to finish the fence
system.gpu.shader_cores0.lsq.warpLatencyFence::14            0                       # Latency in cycles for whole warp to finish the fence
system.gpu.shader_cores0.lsq.warpLatencyFence::15            0                       # Latency in cycles for whole warp to finish the fence
system.gpu.shader_cores0.lsq.warpLatencyFence::total            0                       # Latency in cycles for whole warp to finish the fence
system.gpu.shader_cores0.lsq.warpLatencyAtomic::samples            0                       # Latency in cycles for whole warp to finish the atomic
system.gpu.shader_cores0.lsq.warpLatencyAtomic::mean          nan                       # Latency in cycles for whole warp to finish the atomic
system.gpu.shader_cores0.lsq.warpLatencyAtomic::gmean          nan                       # Latency in cycles for whole warp to finish the atomic
system.gpu.shader_cores0.lsq.warpLatencyAtomic::stdev          nan                       # Latency in cycles for whole warp to finish the atomic
system.gpu.shader_cores0.lsq.warpLatencyAtomic::0            0                       # Latency in cycles for whole warp to finish the atomic
system.gpu.shader_cores0.lsq.warpLatencyAtomic::1            0                       # Latency in cycles for whole warp to finish the atomic
system.gpu.shader_cores0.lsq.warpLatencyAtomic::2            0                       # Latency in cycles for whole warp to finish the atomic
system.gpu.shader_cores0.lsq.warpLatencyAtomic::3            0                       # Latency in cycles for whole warp to finish the atomic
system.gpu.shader_cores0.lsq.warpLatencyAtomic::4            0                       # Latency in cycles for whole warp to finish the atomic
system.gpu.shader_cores0.lsq.warpLatencyAtomic::5            0                       # Latency in cycles for whole warp to finish the atomic
system.gpu.shader_cores0.lsq.warpLatencyAtomic::6            0                       # Latency in cycles for whole warp to finish the atomic
system.gpu.shader_cores0.lsq.warpLatencyAtomic::7            0                       # Latency in cycles for whole warp to finish the atomic
system.gpu.shader_cores0.lsq.warpLatencyAtomic::8            0                       # Latency in cycles for whole warp to finish the atomic
system.gpu.shader_cores0.lsq.warpLatencyAtomic::9            0                       # Latency in cycles for whole warp to finish the atomic
system.gpu.shader_cores0.lsq.warpLatencyAtomic::10            0                       # Latency in cycles for whole warp to finish the atomic
system.gpu.shader_cores0.lsq.warpLatencyAtomic::11            0                       # Latency in cycles for whole warp to finish the atomic
system.gpu.shader_cores0.lsq.warpLatencyAtomic::12            0                       # Latency in cycles for whole warp to finish the atomic
system.gpu.shader_cores0.lsq.warpLatencyAtomic::13            0                       # Latency in cycles for whole warp to finish the atomic
system.gpu.shader_cores0.lsq.warpLatencyAtomic::14            0                       # Latency in cycles for whole warp to finish the atomic
system.gpu.shader_cores0.lsq.warpLatencyAtomic::15            0                       # Latency in cycles for whole warp to finish the atomic
system.gpu.shader_cores0.lsq.warpLatencyAtomic::total            0                       # Latency in cycles for whole warp to finish the atomic
system.gpu.shader_cores0.lsq.tlbMissLatency::samples            0                       # Latency in cycles for TLB miss
system.gpu.shader_cores0.lsq.tlbMissLatency::mean          nan                       # Latency in cycles for TLB miss
system.gpu.shader_cores0.lsq.tlbMissLatency::gmean          nan                       # Latency in cycles for TLB miss
system.gpu.shader_cores0.lsq.tlbMissLatency::stdev          nan                       # Latency in cycles for TLB miss
system.gpu.shader_cores0.lsq.tlbMissLatency::0            0                       # Latency in cycles for TLB miss
system.gpu.shader_cores0.lsq.tlbMissLatency::1            0                       # Latency in cycles for TLB miss
system.gpu.shader_cores0.lsq.tlbMissLatency::2            0                       # Latency in cycles for TLB miss
system.gpu.shader_cores0.lsq.tlbMissLatency::3            0                       # Latency in cycles for TLB miss
system.gpu.shader_cores0.lsq.tlbMissLatency::4            0                       # Latency in cycles for TLB miss
system.gpu.shader_cores0.lsq.tlbMissLatency::5            0                       # Latency in cycles for TLB miss
system.gpu.shader_cores0.lsq.tlbMissLatency::6            0                       # Latency in cycles for TLB miss
system.gpu.shader_cores0.lsq.tlbMissLatency::7            0                       # Latency in cycles for TLB miss
system.gpu.shader_cores0.lsq.tlbMissLatency::8            0                       # Latency in cycles for TLB miss
system.gpu.shader_cores0.lsq.tlbMissLatency::9            0                       # Latency in cycles for TLB miss
system.gpu.shader_cores0.lsq.tlbMissLatency::10            0                       # Latency in cycles for TLB miss
system.gpu.shader_cores0.lsq.tlbMissLatency::11            0                       # Latency in cycles for TLB miss
system.gpu.shader_cores0.lsq.tlbMissLatency::12            0                       # Latency in cycles for TLB miss
system.gpu.shader_cores0.lsq.tlbMissLatency::13            0                       # Latency in cycles for TLB miss
system.gpu.shader_cores0.lsq.tlbMissLatency::14            0                       # Latency in cycles for TLB miss
system.gpu.shader_cores0.lsq.tlbMissLatency::15            0                       # Latency in cycles for TLB miss
system.gpu.shader_cores0.lsq.tlbMissLatency::total            0                       # Latency in cycles for TLB miss
system.gpu.shader_cores1.itb.hits                   0                       # Number of hits in this TLB
system.gpu.shader_cores1.itb.misses                 0                       # Number of misses in this TLB
system.gpu.shader_cores1.itb.hitRate              nan                       # Hit rate for this TLB
system.gpu.shader_cores1.local_loads                0                       # Number of loads from local space
system.gpu.shader_cores1.local_stores               0                       # Number of stores to local space
system.gpu.shader_cores1.shared_loads               0                       # Number of loads from shared space
system.gpu.shader_cores1.shared_stores              0                       # Number of stores to shared space
system.gpu.shader_cores1.param_kernel_loads            0                       # Number of loads from kernel parameter space
system.gpu.shader_cores1.param_local_loads            0                       # Number of loads from local parameter space
system.gpu.shader_cores1.param_local_stores            0                       # Number of stores to local parameter space
system.gpu.shader_cores1.const_loads                0                       # Number of loads from constant space
system.gpu.shader_cores1.tex_loads                  0                       # Number of loads from texture space
system.gpu.shader_cores1.global_loads               0                       # Number of loads from global space
system.gpu.shader_cores1.global_stores              0                       # Number of stores to global space
system.gpu.shader_cores1.surf_loads                 0                       # Number of loads from surface space
system.gpu.shader_cores1.generic_loads              0                       # Number of loads from generic spaces (global, shared, local)
system.gpu.shader_cores1.generic_stores             0                       # Number of stores to generic spaces (global, shared, local)
system.gpu.shader_cores1.inst_cache_requests            0                       # Number of instruction cache requests sent
system.gpu.shader_cores1.inst_cache_retries            0                       # Number of instruction cache retries
system.gpu.shader_cores1.inst_counts::0             0                       # Inst counts: 1: ALU, 2: MAD, 3: CTRL, 4: SFU, 5: MEM, 6: TEX, 7: NOP
system.gpu.shader_cores1.inst_counts::1             0                       # Inst counts: 1: ALU, 2: MAD, 3: CTRL, 4: SFU, 5: MEM, 6: TEX, 7: NOP
system.gpu.shader_cores1.inst_counts::2             0                       # Inst counts: 1: ALU, 2: MAD, 3: CTRL, 4: SFU, 5: MEM, 6: TEX, 7: NOP
system.gpu.shader_cores1.inst_counts::3             0                       # Inst counts: 1: ALU, 2: MAD, 3: CTRL, 4: SFU, 5: MEM, 6: TEX, 7: NOP
system.gpu.shader_cores1.inst_counts::4             0                       # Inst counts: 1: ALU, 2: MAD, 3: CTRL, 4: SFU, 5: MEM, 6: TEX, 7: NOP
system.gpu.shader_cores1.inst_counts::5             0                       # Inst counts: 1: ALU, 2: MAD, 3: CTRL, 4: SFU, 5: MEM, 6: TEX, 7: NOP
system.gpu.shader_cores1.inst_counts::6             0                       # Inst counts: 1: ALU, 2: MAD, 3: CTRL, 4: SFU, 5: MEM, 6: TEX, 7: NOP
system.gpu.shader_cores1.inst_counts::7             0                       # Inst counts: 1: ALU, 2: MAD, 3: CTRL, 4: SFU, 5: MEM, 6: TEX, 7: NOP
system.gpu.shader_cores1.activeCycles               0                       # Number of cycles this shader was executing a CTA
system.gpu.shader_cores1.notStalledCycles            0                       # Number of cycles this shader was actually executing at least one instance
system.gpu.shader_cores1.instInstances              0                       # Total instructions executed by all PEs in the core
system.gpu.shader_cores1.instPerCycle             nan                       # Instruction instances per cycle
system.gpu.shader_cores1.kernels_completed            0                       # Number of kernels completed
system.gpu.shader_cores1.lsq.data_tlb.hits            0                       # Number of hits in this TLB
system.gpu.shader_cores1.lsq.data_tlb.misses            0                       # Number of misses in this TLB
system.gpu.shader_cores1.lsq.data_tlb.hitRate          nan                       # Hit rate for this TLB
system.gpu.shader_cores1.lsq.warpInstBufActive::samples            0                       # Histogram of number of active warp inst buffers at a given time
system.gpu.shader_cores1.lsq.warpInstBufActive::mean          nan                       # Histogram of number of active warp inst buffers at a given time
system.gpu.shader_cores1.lsq.warpInstBufActive::gmean          nan                       # Histogram of number of active warp inst buffers at a given time
system.gpu.shader_cores1.lsq.warpInstBufActive::stdev          nan                       # Histogram of number of active warp inst buffers at a given time
system.gpu.shader_cores1.lsq.warpInstBufActive::0            0                       # Histogram of number of active warp inst buffers at a given time
system.gpu.shader_cores1.lsq.warpInstBufActive::1            0                       # Histogram of number of active warp inst buffers at a given time
system.gpu.shader_cores1.lsq.warpInstBufActive::2            0                       # Histogram of number of active warp inst buffers at a given time
system.gpu.shader_cores1.lsq.warpInstBufActive::3            0                       # Histogram of number of active warp inst buffers at a given time
system.gpu.shader_cores1.lsq.warpInstBufActive::4            0                       # Histogram of number of active warp inst buffers at a given time
system.gpu.shader_cores1.lsq.warpInstBufActive::5            0                       # Histogram of number of active warp inst buffers at a given time
system.gpu.shader_cores1.lsq.warpInstBufActive::6            0                       # Histogram of number of active warp inst buffers at a given time
system.gpu.shader_cores1.lsq.warpInstBufActive::7            0                       # Histogram of number of active warp inst buffers at a given time
system.gpu.shader_cores1.lsq.warpInstBufActive::8            0                       # Histogram of number of active warp inst buffers at a given time
system.gpu.shader_cores1.lsq.warpInstBufActive::9            0                       # Histogram of number of active warp inst buffers at a given time
system.gpu.shader_cores1.lsq.warpInstBufActive::10            0                       # Histogram of number of active warp inst buffers at a given time
[...]
system.ruby.RMW_Read.L1Cache.hit_type_mach_latency_hist::max_bucket            9                      
system.ruby.RMW_Read.L1Cache.hit_type_mach_latency_hist::samples         2332                      
system.ruby.RMW_Read.L1Cache.hit_type_mach_latency_hist::mean            1                      
system.ruby.RMW_Read.L1Cache.hit_type_mach_latency_hist::gmean            1                      
system.ruby.RMW_Read.L1Cache.hit_type_mach_latency_hist |           0      0.00%      0.00% |        2332    100.00%    100.00% |           0      0.00%    100.00% |           0      0.00%    100.00% |           0      0.00%    100.00% |           0      0.00%    100.00% |           0      0.00%    100.00% |           0      0.00%    100.00% |           0      0.00%    100.00% |           0      0.00%    100.00%
system.ruby.RMW_Read.L1Cache.hit_type_mach_latency_hist::total         2332                      
system.ruby.RMW_Read.Directory.miss_type_mach_latency_hist::bucket_size           16                      
system.ruby.RMW_Read.Directory.miss_type_mach_latency_hist::max_bucket          159                      
system.ruby.RMW_Read.Directory.miss_type_mach_latency_hist::samples            2                      
system.ruby.RMW_Read.Directory.miss_type_mach_latency_hist::mean          144                      
system.ruby.RMW_Read.Directory.miss_type_mach_latency_hist::gmean          144                      
system.ruby.RMW_Read.Directory.miss_type_mach_latency_hist |           0      0.00%      0.00% |           0      0.00%      0.00% |           0      0.00%      0.00% |           0      0.00%      0.00% |           0      0.00%      0.00% |           0      0.00%      0.00% |           0      0.00%      0.00% |           0      0.00%      0.00% |           0      0.00%      0.00% |           2    100.00%    100.00%
system.ruby.RMW_Read.Directory.miss_type_mach_latency_hist::total            2                      
system.ruby.Locked_RMW_Read.L1Cache.hit_type_mach_latency_hist::bucket_size            1                      
system.ruby.Locked_RMW_Read.L1Cache.hit_type_mach_latency_hist::max_bucket            9                      
system.ruby.Locked_RMW_Read.L1Cache.hit_type_mach_latency_hist::samples          456                      
system.ruby.Locked_RMW_Read.L1Cache.hit_type_mach_latency_hist::mean            1                      
system.ruby.Locked_RMW_Read.L1Cache.hit_type_mach_latency_hist::gmean            1                      
system.ruby.Locked_RMW_Read.L1Cache.hit_type_mach_latency_hist |           0      0.00%      0.00% |         456    100.00%    100.00% |           0      0.00%    100.00% |           0      0.00%    100.00% |           0      0.00%    100.00% |           0      0.00%    100.00% |           0      0.00%    100.00% |           0      0.00%    100.00% |           0      0.00%    100.00% |           0      0.00%    100.00%
system.ruby.Locked_RMW_Read.L1Cache.hit_type_mach_latency_hist::total          456                      
system.ruby.Locked_RMW_Write.L1Cache.hit_type_mach_latency_hist::bucket_size            1                      
system.ruby.Locked_RMW_Write.L1Cache.hit_type_mach_latency_hist::max_bucket            9                      
system.ruby.Locked_RMW_Write.L1Cache.hit_type_mach_latency_hist::samples          456                      
system.ruby.Locked_RMW_Write.L1Cache.hit_type_mach_latency_hist::mean            1                      
system.ruby.Locked_RMW_Write.L1Cache.hit_type_mach_latency_hist::gmean            1                      
system.ruby.Locked_RMW_Write.L1Cache.hit_type_mach_latency_hist |           0      0.00%      0.00% |         456    100.00%    100.00% |           0      0.00%    100.00% |           0      0.00%    100.00% |           0      0.00%    100.00% |           0      0.00%    100.00% |           0      0.00%    100.00% |           0      0.00%    100.00% |           0      0.00%    100.00% |           0      0.00%    100.00%
system.ruby.Locked_RMW_Write.L1Cache.hit_type_mach_latency_hist::total          456                      
system.ruby.GPUCopyDMA_Controller.ReadRequest |       56075     50.00%     50.00% |       56064     50.00%    100.00%
system.ruby.GPUCopyDMA_Controller.ReadRequest::total       112139                      
system.ruby.GPUCopyDMA_Controller.WriteRequest |       56075     50.00%     50.00% |       56064     50.00%    100.00%
system.ruby.GPUCopyDMA_Controller.WriteRequest::total       112139                      
system.ruby.GPUCopyDMA_Controller.Data   |       56075     50.00%     50.00% |       56064     50.00%    100.00%
system.ruby.GPUCopyDMA_Controller.Data::total       112139                      
system.ruby.GPUCopyDMA_Controller.Ack    |       56075     50.00%     50.00% |       56064     50.00%    100.00%
system.ruby.GPUCopyDMA_Controller.Ack::total       112139                      
system.ruby.GPUCopyDMA_Controller.READY.ReadRequest |       56075     50.00%     50.00% |       56064     50.00%    100.00%
system.ruby.GPUCopyDMA_Controller.READY.ReadRequest::total       112139                      
system.ruby.GPUCopyDMA_Controller.READY.WriteRequest |       56075     50.00%     50.00% |       56064     50.00%    100.00%
system.ruby.GPUCopyDMA_Controller.READY.WriteRequest::total       112139                      
system.ruby.GPUCopyDMA_Controller.BUSY_RD.Data |       56075     50.00%     50.00% |       56064     50.00%    100.00%
system.ruby.GPUCopyDMA_Controller.BUSY_RD.Data::total       112139                      
system.ruby.GPUCopyDMA_Controller.BUSY_WR.Ack |       56075     50.00%     50.00% |       56064     50.00%    100.00%
system.ruby.GPUCopyDMA_Controller.BUSY_WR.Ack::total       112139                      
system.ruby.Directory_Controller.GETX    |          82    100.00%    100.00% |           0      0.00%    100.00%
system.ruby.Directory_Controller.GETX::total           82                      
system.ruby.Directory_Controller.GETS    |        1039    100.00%    100.00% |           0      0.00%    100.00%
system.ruby.Directory_Controller.GETS::total         1039                      
system.ruby.Directory_Controller.PUT     |          13    100.00%    100.00% |           0      0.00%    100.00%
system.ruby.Directory_Controller.PUT::total           13                      
system.ruby.Directory_Controller.UnblockM |        1121    100.00%    100.00% |           0      0.00%    100.00%
system.ruby.Directory_Controller.UnblockM::total         1121                      
system.ruby.Directory_Controller.Writeback_Clean |           3    100.00%    100.00% |           0      0.00%    100.00%
system.ruby.Directory_Controller.Writeback_Clean::total            3                      
system.ruby.Directory_Controller.Writeback_Exclusive_Clean |           6    100.00%    100.00% |           0      0.00%    100.00%
system.ruby.Directory_Controller.Writeback_Exclusive_Clean::total            6                      
system.ruby.Directory_Controller.Writeback_Exclusive_Dirty |           4    100.00%    100.00% |           0      0.00%    100.00%
system.ruby.Directory_Controller.Writeback_Exclusive_Dirty::total            4                      
system.ruby.Directory_Controller.DMA_READ |       56075     50.00%     50.00% |       56064     50.00%    100.00%
system.ruby.Directory_Controller.DMA_READ::total       112139                      
system.ruby.Directory_Controller.DMA_WRITE |       56075     50.00%     50.00% |       56064     50.00%    100.00%
system.ruby.Directory_Controller.DMA_WRITE::total       112139                      
system.ruby.Directory_Controller.Memory_Data |       55447     49.72%     49.72% |       56064     50.28%    100.00%
system.ruby.Directory_Controller.Memory_Data::total       111511                      
system.ruby.Directory_Controller.Memory_Ack |       56079     50.01%     50.01% |       56064     49.99%    100.00%
system.ruby.Directory_Controller.Memory_Ack::total       112143                      
system.ruby.Directory_Controller.Ack     |      222043     49.75%     49.75% |      224256     50.25%    100.00%
system.ruby.Directory_Controller.Ack::total       446299                      
system.ruby.Directory_Controller.Shared_Data |        1748    100.00%    100.00% |           0      0.00%    100.00%
system.ruby.Directory_Controller.Shared_Data::total         1748                      
system.ruby.Directory_Controller.Data    |         508    100.00%    100.00% |           0      0.00%    100.00%
system.ruby.Directory_Controller.Data::total          508                      
system.ruby.Directory_Controller.Exclusive_Data |           1    100.00%    100.00% |           0      0.00%    100.00%
system.ruby.Directory_Controller.Exclusive_Data::total            1                      
system.ruby.Directory_Controller.All_acks_and_shared_data |        1748    100.00%    100.00% |           0      0.00%    100.00%
system.ruby.Directory_Controller.All_acks_and_shared_data::total         1748                      
system.ruby.Directory_Controller.All_acks_and_data_no_sharers |      110402     49.61%     49.61% |      112128     50.39%    100.00%
system.ruby.Directory_Controller.All_acks_and_data_no_sharers::total       222530                      
system.ruby.Directory_Controller.NO.PUT  |          10    100.00%    100.00% |           0      0.00%    100.00%
system.ruby.Directory_Controller.NO.PUT::total           10                      
system.ruby.Directory_Controller.NO.DMA_READ |         512    100.00%    100.00% |           0      0.00%    100.00%
system.ruby.Directory_Controller.NO.DMA_READ::total          512                      
system.ruby.Directory_Controller.S.PUT   |           3    100.00%    100.00% |           0      0.00%    100.00%
system.ruby.Directory_Controller.S.PUT::total            3                      
system.ruby.Directory_Controller.S.DMA_READ |        1237    100.00%    100.00% |           0      0.00%    100.00%
system.ruby.Directory_Controller.S.DMA_READ::total         1237                      
system.ruby.Directory_Controller.S.DMA_WRITE |         508    100.00%    100.00% |           0      0.00%    100.00%
system.ruby.Directory_Controller.S.DMA_WRITE::total          508                      
system.ruby.Directory_Controller.O.DMA_WRITE |           3    100.00%    100.00% |           0      0.00%    100.00%
system.ruby.Directory_Controller.O.DMA_WRITE::total            3                      
system.ruby.Directory_Controller.E.GETX  |          82    100.00%    100.00% |           0      0.00%    100.00%
system.ruby.Directory_Controller.E.GETX::total           82                      
system.ruby.Directory_Controller.E.GETS  |        1039    100.00%    100.00% |           0      0.00%    100.00%
system.ruby.Directory_Controller.E.GETS::total         1039                      
system.ruby.Directory_Controller.E.DMA_READ |       54326     49.21%     49.21% |       56064     50.79%    100.00%
system.ruby.Directory_Controller.E.DMA_READ::total       110390                      
system.ruby.Directory_Controller.E.DMA_WRITE |       55564     49.78%     49.78% |       56064     50.22%    100.00%
system.ruby.Directory_Controller.E.DMA_WRITE::total       111628                      
system.ruby.Directory_Controller.NO_B.UnblockM |        1121    100.00%    100.00% |           0      0.00%    100.00%
system.ruby.Directory_Controller.NO_B.UnblockM::total         1121                      
system.ruby.Directory_Controller.NO_B_W.Memory_Data |        1121    100.00%    100.00% |           0      0.00%    100.00%
system.ruby.Directory_Controller.NO_B_W.Memory_Data::total         1121                      
system.ruby.Directory_Controller.NO_DW_B_W.Ack |      111642     49.89%     49.89% |      112128     50.11%    100.00%
system.ruby.Directory_Controller.NO_DW_B_W.Ack::total       223770                      
system.ruby.Directory_Controller.NO_DW_B_W.Data |         508    100.00%    100.00% |           0      0.00%    100.00%
system.ruby.Directory_Controller.NO_DW_B_W.Data::total          508                      
system.ruby.Directory_Controller.NO_DW_B_W.All_acks_and_data_no_sharers |       56075     50.00%     50.00% |       56064     50.00%    100.00%
system.ruby.Directory_Controller.NO_DW_B_W.All_acks_and_data_no_sharers::total       112139                      
system.ruby.Directory_Controller.NO_DR_B_W.Memory_Data |       54326     49.21%     49.21% |       56064     50.79%    100.00%
system.ruby.Directory_Controller.NO_DR_B_W.Memory_Data::total       110390                      
system.ruby.Directory_Controller.NO_DR_B_W.Ack |      108652     49.21%     49.21% |      112128     50.79%    100.00%
system.ruby.Directory_Controller.NO_DR_B_W.Ack::total       220780                      
system.ruby.Directory_Controller.NO_DR_B_D.Ack |        1749    100.00%    100.00% |           0      0.00%    100.00%
system.ruby.Directory_Controller.NO_DR_B_D.Ack::total         1749                      
system.ruby.Directory_Controller.NO_DR_B_D.Shared_Data |        1748    100.00%    100.00% |           0      0.00%    100.00%
system.ruby.Directory_Controller.NO_DR_B_D.Shared_Data::total         1748                      
system.ruby.Directory_Controller.NO_DR_B_D.Exclusive_Data |           1    100.00%    100.00% |           0      0.00%    100.00%
system.ruby.Directory_Controller.NO_DR_B_D.Exclusive_Data::total            1                      
system.ruby.Directory_Controller.NO_DR_B_D.All_acks_and_shared_data |        1748    100.00%    100.00% |           0      0.00%    100.00%
system.ruby.Directory_Controller.NO_DR_B_D.All_acks_and_shared_data::total         1748                      
system.ruby.Directory_Controller.NO_DR_B_D.All_acks_and_data_no_sharers |           1    100.00%    100.00% |           0      0.00%    100.00%
system.ruby.Directory_Controller.NO_DR_B_D.All_acks_and_data_no_sharers::total            1                      
system.ruby.Directory_Controller.NO_DR_B.All_acks_and_data_no_sharers |       54326     49.21%     49.21% |       56064     50.79%    100.00%
system.ruby.Directory_Controller.NO_DR_B.All_acks_and_data_no_sharers::total       110390                      
system.ruby.Directory_Controller.NO_DW_W.Memory_Ack |       56075     50.00%     50.00% |       56064     50.00%    100.00%
system.ruby.Directory_Controller.NO_DW_W.Memory_Ack::total       112139                      
system.ruby.Directory_Controller.WB.Writeback_Clean |           3    100.00%    100.00% |           0      0.00%    100.00%
system.ruby.Directory_Controller.WB.Writeback_Clean::total            3                      
system.ruby.Directory_Controller.WB.Writeback_Exclusive_Clean |           6    100.00%    100.00% |           0      0.00%    100.00%
system.ruby.Directory_Controller.WB.Writeback_Exclusive_Clean::total            6                      
system.ruby.Directory_Controller.WB.Writeback_Exclusive_Dirty |           4    100.00%    100.00% |           0      0.00%    100.00%
system.ruby.Directory_Controller.WB.Writeback_Exclusive_Dirty::total            4                      
system.ruby.Directory_Controller.WB_E_W.Memory_Ack |           4    100.00%    100.00% |           0      0.00%    100.00%
system.ruby.Directory_Controller.WB_E_W.Memory_Ack::total            4                      
system.ruby.L1Cache_Controller.Load             60589      0.00%      0.00%
system.ruby.L1Cache_Controller.Ifetch          380557      0.00%      0.00%
system.ruby.L1Cache_Controller.Store            46421      0.00%      0.00%
system.ruby.L1Cache_Controller.L2_Replacement           14      0.00%      0.00%
system.ruby.L1Cache_Controller.L1_to_L2          1199      0.00%      0.00%
system.ruby.L1Cache_Controller.Trigger_L2_to_L1D            2      0.00%      0.00%
system.ruby.L1Cache_Controller.Trigger_L2_to_L1I          483      0.00%      0.00%
system.ruby.L1Cache_Controller.Complete_L2_to_L1          485      0.00%      0.00%
system.ruby.L1Cache_Controller.Other_GETX       112139      0.00%      0.00%
system.ruby.L1Cache_Controller.Other_GETS       112139      0.00%      0.00%
system.ruby.L1Cache_Controller.Ack               1121      0.00%      0.00%
system.ruby.L1Cache_Controller.Exclusive_Data         1121      0.00%      0.00%
system.ruby.L1Cache_Controller.Writeback_Ack           13      0.00%      0.00%
system.ruby.L1Cache_Controller.All_acks_no_sharers         1121      0.00%      0.00%
system.ruby.L1Cache_Controller.I.Load             607      0.00%      0.00%
system.ruby.L1Cache_Controller.I.Ifetch           431      0.00%      0.00%
system.ruby.L1Cache_Controller.I.Store             82      0.00%      0.00%
system.ruby.L1Cache_Controller.I.L2_Replacement            1      0.00%      0.00%
system.ruby.L1Cache_Controller.I.L1_to_L2            2      0.00%      0.00%
system.ruby.L1Cache_Controller.I.Trigger_L2_to_L1D            1      0.00%      0.00%
system.ruby.L1Cache_Controller.I.Other_GETX       111631      0.00%      0.00%
system.ruby.L1Cache_Controller.I.Other_GETS       110390      0.00%      0.00%
system.ruby.L1Cache_Controller.O.L2_Replacement            3      0.00%      0.00%
system.ruby.L1Cache_Controller.O.Other_GETX          508      0.00%      0.00%
system.ruby.L1Cache_Controller.O.Other_GETS         1237      0.00%      0.00%
system.ruby.L1Cache_Controller.M.Load            5234      0.00%      0.00%
system.ruby.L1Cache_Controller.M.Ifetch        379643      0.00%      0.00%
system.ruby.L1Cache_Controller.M.Store             24      0.00%      0.00%
system.ruby.L1Cache_Controller.M.L2_Replacement            6      0.00%      0.00%
system.ruby.L1Cache_Controller.M.L1_to_L2         1191      0.00%      0.00%
system.ruby.L1Cache_Controller.M.Trigger_L2_to_L1I          483      0.00%      0.00%
system.ruby.L1Cache_Controller.M.Other_GETS          511      0.00%      0.00%
system.ruby.L1Cache_Controller.MM.Load          54747      0.00%      0.00%
system.ruby.L1Cache_Controller.MM.Store         46314      0.00%      0.00%
system.ruby.L1Cache_Controller.MM.L2_Replacement            4      0.00%      0.00%
system.ruby.L1Cache_Controller.MM.L1_to_L2            6      0.00%      0.00%
system.ruby.L1Cache_Controller.MM.Trigger_L2_to_L1D            1      0.00%      0.00%
system.ruby.L1Cache_Controller.MM.Other_GETS            1      0.00%      0.00%
system.ruby.L1Cache_Controller.IR.Load              1      0.00%      0.00%
system.ruby.L1Cache_Controller.MR.Ifetch          483      0.00%      0.00%
system.ruby.L1Cache_Controller.MMR.Store            1      0.00%      0.00%
system.ruby.L1Cache_Controller.IM.Ack              82      0.00%      0.00%
system.ruby.L1Cache_Controller.IM.Exclusive_Data           82      0.00%      0.00%
system.ruby.L1Cache_Controller.M_W.All_acks_no_sharers         1039      0.00%      0.00%
system.ruby.L1Cache_Controller.MM_W.All_acks_no_sharers           82      0.00%      0.00%
system.ruby.L1Cache_Controller.IS.Ack            1039      0.00%      0.00%
system.ruby.L1Cache_Controller.IS.Exclusive_Data         1039      0.00%      0.00%
system.ruby.L1Cache_Controller.OI.Writeback_Ack            3      0.00%      0.00%
system.ruby.L1Cache_Controller.MI.Writeback_Ack           10      0.00%      0.00%
system.ruby.L1Cache_Controller.IT.Complete_L2_to_L1            1      0.00%      0.00%
system.ruby.L1Cache_Controller.MT.Complete_L2_to_L1          483      0.00%      0.00%
system.ruby.L1Cache_Controller.MMT.Complete_L2_to_L1            1      0.00%      0.00%
system.ruby.GPUL2Cache_Controller.Other_GETX       112221      0.00%      0.00%
system.ruby.GPUL2Cache_Controller.Other_GETS       113178      0.00%      0.00%
system.ruby.GPUL2Cache_Controller.I.Other_GETX       112221      0.00%      0.00%
system.ruby.GPUL2Cache_Controller.I.Other_GETS       113178      0.00%      0.00%

---------- End Simulation Statistics   ----------
