
---------- Begin Simulation Statistics ----------
sim_seconds                                  0.000036                       # Number of seconds simulated
sim_ticks                                    36406000                       # Number of ticks simulated
final_tick                                   36406000                       # Number of ticks from beginning of simulation (restored from checkpoints and never reset)
sim_freq                                 1000000000000                       # Frequency of simulated ticks
host_inst_rate                                  34065                       # Simulator instruction rate (inst/s)
host_op_rate                                    61705                       # Simulator op (including micro ops) rate (op/s)
host_tick_rate                              230431857                       # Simulator tick rate (ticks/s)
host_mem_usage                                4454872                       # Number of bytes of host memory used
host_seconds                                     0.16                       # Real time elapsed on the host
sim_insts                                        5381                       # Number of instructions simulated
sim_ops                                          9748                       # Number of ops (including micro ops) simulated
system.voltage_domain.voltage                       1                       # Voltage in Volts
system.clk_domain.clock                          1000                       # Clock period in ticks
system.mem_ctrls.clk_domain.clock                2500                       # Clock period in ticks
system.mem_ctrls.bytes_read::ruby.dir_cntrl0        29056                       # Number of bytes read from this memory
system.mem_ctrls.bytes_read::total              29056                       # Number of bytes read from this memory
system.mem_ctrls.num_reads::ruby.dir_cntrl0          227                       # Number of read requests responded to by this memory
system.mem_ctrls.num_reads::total                 227                       # Number of read requests responded to by this memory
system.mem_ctrls.bw_read::ruby.dir_cntrl0    798110202                       # Total read bandwidth from this memory (bytes/s)
system.mem_ctrls.bw_read::total             798110202                       # Total read bandwidth from this memory (bytes/s)
system.mem_ctrls.bw_total::ruby.dir_cntrl0    798110202                       # Total bandwidth to/from this memory (bytes/s)
system.mem_ctrls.bw_total::total            798110202                       # Total bandwidth to/from this memory (bytes/s)
system.mem_ctrls.memReq                           227                       # Total number of memory requests
system.mem_ctrls.memRead                          227                       # Number of memory reads
system.mem_ctrls.memRefresh                       304                       # Number of memory refreshes
system.mem_ctrls.memWaitCycles                     10                       # Delay stalled at the head of the bank queue
system.mem_ctrls.totalStalls                       10                       # Total number of stall cycles
system.mem_ctrls.stallsPerReq                0.044053                       # Expected number of stall cycles per request
system.mem_ctrls.memBusBusy                         8                       # memory stalls due to busy bus
system.mem_ctrls.memArbWait                         2                       # memory stalls due to arbitration
system.mem_ctrls.memBankCount            |          12      5.29%      5.29% |          10      4.41%      9.69% |          10      4.41%     14.10% |          11      4.85%     18.94% |          13      5.73%     24.67% |           9      3.96%     28.63% |           9      3.96%     32.60% |           8      3.52%     36.12% |           5      2.20%     38.33% |           5      2.20%     40.53% |           8      3.52%     44.05% |           8      3.52%     47.58% |          10      4.41%     51.98% |           6      2.64%     54.63% |           5      2.20%     56.83% |           2      0.88%     57.71% |           5      2.20%     59.91% |           2      0.88%     60.79% |           3      1.32%     62.11% |           4      1.76%     63.88% |           8      3.52%     67.40% |           7      3.08%     70.48% |           2      0.88%     71.37% |           4      1.76%     73.13% |           3      1.32%     74.45% |           5      2.20%     76.65% |           5      2.20%     78.85% |           6      2.64%     81.50% |           6      2.64%     84.14% |          13      5.73%     89.87% |          12      5.29%     95.15% |          11      4.85%    100.00% # Number of accesses per bank
system.mem_ctrls.memBankCount::total              227                       # Number of accesses per bank
system.ruby_clk_domain.clock                      500                       # Clock period in ticks
system.ruby.phys_mem.bytes_read::cpu.inst        54912                       # Number of bytes read from this memory
system.ruby.phys_mem.bytes_read::cpu.data         7066                       # Number of bytes read from this memory
system.ruby.phys_mem.bytes_read::total          61978                       # Number of bytes read from this memory
system.ruby.phys_mem.bytes_inst_read::cpu.inst        54912                       # Number of instructions bytes read from this memory
system.ruby.phys_mem.bytes_inst_read::total        54912                       # Number of instructions bytes read from this memory
system.ruby.phys_mem.bytes_written::cpu.data         7112                       # Number of bytes written to this memory
system.ruby.phys_mem.bytes_written::total         7112                       # Number of bytes written to this memory
system.ruby.phys_mem.num_reads::cpu.inst         6864                       # Number of read requests responded to by this memory
system.ruby.phys_mem.num_reads::cpu.data         1053                       # Number of read requests responded to by this memory
system.ruby.phys_mem.num_reads::total            7917                       # Number of read requests responded to by this memory
system.ruby.phys_mem.num_writes::cpu.data          935                       # Number of write requests responded to by this memory
system.ruby.phys_mem.num_writes::total            935                       # Number of write requests responded to by this memory
system.ruby.phys_mem.bw_read::cpu.inst     1508322804                       # Total read bandwidth from this memory (bytes/s)
system.ruby.phys_mem.bw_read::cpu.data      194088886                       # Total read bandwidth from this memory (bytes/s)
system.ruby.phys_mem.bw_read::total        1702411690                       # Total read bandwidth from this memory (bytes/s)
system.ruby.phys_mem.bw_inst_read::cpu.inst   1508322804                       # Instruction read bandwidth from this memory (bytes/s)
system.ruby.phys_mem.bw_inst_read::total   1508322804                       # Instruction read bandwidth from this memory (bytes/s)
system.ruby.phys_mem.bw_write::cpu.data     195352414                       # Write bandwidth from this memory (bytes/s)
system.ruby.phys_mem.bw_write::total        195352414                       # Write bandwidth from this memory (bytes/s)
system.ruby.phys_mem.bw_total::cpu.inst    1508322804                       # Total bandwidth to/from this memory (bytes/s)
system.ruby.phys_mem.bw_total::cpu.data     389441301                       # Total bandwidth to/from this memory (bytes/s)
system.ruby.phys_mem.bw_total::total       1897764105                       # Total bandwidth to/from this memory (bytes/s)
system.cpu_voltage_domain.voltage                   1                       # Voltage in Volts
system.cpu_clk_domain.clock                       500                       # Clock period in ticks
system.cpu.apic_clk_domain.clock                 8000                       # Clock period in ticks
system.cpu.workload.num_syscalls                   11                       # Number of system calls
system.cpu.numCycles                            72812                       # number of cpu cycles simulated
system.cpu.numWorkItemsStarted                      0                       # number of work items this cpu started
system.cpu.numWorkItemsCompleted                    0                       # number of work items this cpu completed
system.cpu.committedInsts                        5381                       # Number of instructions committed
system.cpu.committedOps                          9748                       # Number of ops (including micro ops) committed
system.cpu.num_int_alu_accesses                  9654                       # Number of integer alu accesses
system.cpu.num_fp_alu_accesses                      0                       # Number of float alu accesses
system.cpu.num_func_calls                         209                       # number of times a function call or return occured
system.cpu.num_conditional_control_insts          899                       # number of instructions that are conditional controls
system.cpu.num_int_insts                         9654                       # number of integer instructions
system.cpu.num_fp_insts                             0                       # number of float instructions
system.cpu.num_int_register_reads               18335                       # number of times the integer registers were read
system.cpu.num_int_register_writes               7527                       # number of times the integer registers were written
system.cpu.num_fp_register_reads                    0                       # number of times the floating registers were read
system.cpu.num_fp_register_writes                   0                       # number of times the floating registers were written
system.cpu.num_cc_register_reads                 6487                       # number of times the CC registers were read
system.cpu.num_cc_register_writes                3536                       # number of times the CC registers were written
system.cpu.num_mem_refs                          1988                       # number of memory refs
system.cpu.num_load_insts                        1053                       # Number of load instructions
system.cpu.num_store_insts                        935                       # Number of store instructions
system.cpu.num_idle_cycles                   0.002000                       # Number of idle cycles
system.cpu.num_busy_cycles               72811.998000                       # Number of busy cycles
system.cpu.not_idle_fraction                 1.000000                       # Percentage of non-idle cycles
system.cpu.idle_fraction                     0.000000                       # Percentage of idle cycles
system.cpu.Branches                              1208                       # Number of branches fetched
system.cpu.op_class::No_OpClass                     1      0.01%      0.01% # Class of executed instruction
system.cpu.op_class::IntAlu                      7749     79.49%     79.50% # Class of executed instruction
system.cpu.op_class::IntMult                        3      0.03%     79.53% # Class of executed instruction
system.cpu.op_class::IntDiv                         7      0.07%     79.61% # Class of executed instruction
system.cpu.op_class::FloatAdd                       0      0.00%     79.61% # Class of executed instruction
system.cpu.op_class::FloatCmp                       0      0.00%     79.61% # Class of executed instruction
system.cpu.op_class::FloatCvt                       0      0.00%     79.61% # Class of executed instruction
system.cpu.op_class::FloatMult                      0      0.00%     79.61% # Class of executed instruction
system.cpu.op_class::FloatDiv                       0      0.00%     79.61% # Class of executed instruction
system.cpu.op_class::FloatSqrt                      0      0.00%     79.61% # Class of executed instruction
system.cpu.op_class::SimdAdd                        0      0.00%     79.61% # Class of executed instruction
system.cpu.op_class::SimdAddAcc                     0      0.00%     79.61% # Class of executed instruction
system.cpu.op_class::SimdAlu                        0      0.00%     79.61% # Class of executed instruction
system.cpu.op_class::SimdCmp                        0      0.00%     79.61% # Class of executed instruction
system.cpu.op_class::SimdCvt                        0      0.00%     79.61% # Class of executed instruction
system.cpu.op_class::SimdMisc                       0      0.00%     79.61% # Class of executed instruction
system.cpu.op_class::SimdMult                       0      0.00%     79.61% # Class of executed instruction
system.cpu.op_class::SimdMultAcc                    0      0.00%     79.61% # Class of executed instruction
system.cpu.op_class::SimdShift                      0      0.00%     79.61% # Class of executed instruction
system.cpu.op_class::SimdShiftAcc                   0      0.00%     79.61% # Class of executed instruction
system.cpu.op_class::SimdSqrt                       0      0.00%     79.61% # Class of executed instruction
system.cpu.op_class::SimdFloatAdd                   0      0.00%     79.61% # Class of executed instruction
system.cpu.op_class::SimdFloatAlu                   0      0.00%     79.61% # Class of executed instruction
system.cpu.op_class::SimdFloatCmp                   0      0.00%     79.61% # Class of executed instruction
system.cpu.op_class::SimdFloatCvt                   0      0.00%     79.61% # Class of executed instruction
system.cpu.op_class::SimdFloatDiv                   0      0.00%     79.61% # Class of executed instruction
system.cpu.op_class::SimdFloatMisc                  0      0.00%     79.61% # Class of executed instruction
system.cpu.op_class::SimdFloatMult                  0      0.00%     79.61% # Class of executed instruction
system.cpu.op_class::SimdFloatMultAcc               0      0.00%     79.61% # Class of executed instruction
system.cpu.op_class::SimdFloatSqrt                  0      0.00%     79.61% # Class of executed instruction
system.cpu.op_class::MemRead                     1053     10.80%     90.41% # Class of executed instruction
system.cpu.op_class::MemWrite                     935      9.59%    100.00% # Class of executed instruction
system.cpu.op_class::IprAccess                      0      0.00%    100.00% # Class of executed instruction
system.cpu.op_class::InstPrefetch                   0      0.00%    100.00% # Class of executed instruction
system.cpu.op_class::total                       9748                       # Class of executed instruction
system.gpu.clk_domain.voltage_domain.voltage            1                       # Voltage in Volts
system.gpu.clk_domain.clock                      1429                       # Clock period in ticks
system.gpu.dram_wrapper.clk_domain.clock          541                       # Clock period in ticks
system.gpu.icnt_wrapper.clk_domain.clock         2858                       # Clock period in ticks
system.ruby.delayHist::bucket_size                  1                       # delay histogram for all message
system.ruby.delayHist::max_bucket                   9                       # delay histogram for all message
system.ruby.delayHist::samples                    779                       # delay histogram for all message
system.ruby.delayHist                    |         779    100.00%    100.00% |           0      0.00%    100.00% |           0      0.00%    100.00% |           0      0.00%    100.00% |           0      0.00%    100.00% |           0      0.00%    100.00% |           0      0.00%    100.00% |           0      0.00%    100.00% |           0      0.00%    100.00% |           0      0.00%    100.00% # delay histogram for all message
system.ruby.delayHist::total                      779                       # delay histogram for all message
system.ruby.outstanding_req_hist::bucket_size            1                      
system.ruby.outstanding_req_hist::max_bucket            9                      
system.ruby.outstanding_req_hist::samples         8852                      
system.ruby.outstanding_req_hist::mean              1                      
system.ruby.outstanding_req_hist::gmean             1                      
system.ruby.outstanding_req_hist         |           0      0.00%      0.00% |        8852    100.00%    100.00% |           0      0.00%    100.00% |           0      0.00%    100.00% |           0      0.00%    100.00% |           0      0.00%    100.00% |           0      0.00%    100.00% |           0      0.00%    100.00% |           0      0.00%    100.00% |           0      0.00%    100.00%
system.ruby.outstanding_req_hist::total          8852                      
system.ruby.latency_hist::bucket_size              32                      
system.ruby.latency_hist::max_bucket              319                      
system.ruby.latency_hist::samples                8852                      
system.ruby.latency_hist::mean               7.225486                      
system.ruby.latency_hist::gmean              3.328467                      
system.ruby.latency_hist::stdev             25.997084                      
system.ruby.latency_hist                 |        8623     97.41%     97.41% |           2      0.02%     97.44% |           0      0.00%     97.44% |           0      0.00%     97.44% |           0      0.00%     97.44% |         227      2.56%    100.00% |           0      0.00%    100.00% |           0      0.00%    100.00% |           0      0.00%    100.00% |           0      0.00%    100.00%
system.ruby.latency_hist::total                  8852                      
system.ruby.hit_latency_hist::bucket_size            1                      
system.ruby.hit_latency_hist::max_bucket            9                      
system.ruby.hit_latency_hist::samples            8622                      
system.ruby.hit_latency_hist::mean                  3                      
system.ruby.hit_latency_hist::gmean          3.000000                      
system.ruby.hit_latency_hist             |           0      0.00%      0.00% |           0      0.00%      0.00% |           0      0.00%      0.00% |        8622    100.00%    100.00% |           0      0.00%    100.00% |           0      0.00%    100.00% |           0      0.00%    100.00% |           0      0.00%    100.00% |           0      0.00%    100.00% |           0      0.00%    100.00%
system.ruby.hit_latency_hist::total              8622                      
system.ruby.miss_latency_hist::bucket_size           32                      
system.ruby.miss_latency_hist::max_bucket          319                      
system.ruby.miss_latency_hist::samples            230                      
system.ruby.miss_latency_hist::mean        165.626087                      
system.ruby.miss_latency_hist::gmean       163.594913                      
system.ruby.miss_latency_hist::stdev        15.793128                      
system.ruby.miss_latency_hist            |           1      0.43%      0.43% |           2      0.87%      1.30% |           0      0.00%      1.30% |           0      0.00%      1.30% |           0      0.00%      1.30% |         227     98.70%    100.00% |           0      0.00%    100.00% |           0      0.00%    100.00% |           0      0.00%    100.00% |           0      0.00%    100.00%
system.ruby.miss_latency_hist::total              230                      
system.gpu.shader_mmu.numPagefaults                 0                       # Number of Pagefaults
system.gpu.shader_mmu.numPagewalks                  0                       # Number of Pagewalks
system.gpu.shader_mmu.totalRequests                 0                       # Total number of requests
system.gpu.shader_mmu.retryFailures                 0                       # Times the retry walk after a pagefault failed
system.gpu.shader_mmu.l2hits                        0                       # Hits in the shared L2
system.gpu.shader_mmu.prefetchHits                  0                       # Number of prefetch hits
system.gpu.shader_mmu.numPrefetches                 0                       # Number of prefetchs
system.gpu.shader_mmu.prefetchFaults                0                       # Number of faults caused by prefetches
system.gpu.shader_mmu.pagefaultLatency::samples            0                       # Latency to complete the pagefault
system.gpu.shader_mmu.pagefaultLatency::mean          nan                       # Latency to complete the pagefault
system.gpu.shader_mmu.pagefaultLatency::gmean          nan                       # Latency to complete the pagefault
system.gpu.shader_mmu.pagefaultLatency::stdev          nan                       # Latency to complete the pagefault
system.gpu.shader_mmu.pagefaultLatency::0            0                       # Latency to complete the pagefault
system.gpu.shader_mmu.pagefaultLatency::1            0                       # Latency to complete the pagefault
system.gpu.shader_mmu.pagefaultLatency::2            0                       # Latency to complete the pagefault
system.gpu.shader_mmu.pagefaultLatency::3            0                       # Latency to complete the pagefault
system.gpu.shader_mmu.pagefaultLatency::4            0                       # Latency to complete the pagefault
system.gpu.shader_mmu.pagefaultLatency::5            0                       # Latency to complete the pagefault
system.gpu.shader_mmu.pagefaultLatency::6            0                       # Latency to complete the pagefault
system.gpu.shader_mmu.pagefaultLatency::7            0                       # Latency to complete the pagefault
system.gpu.shader_mmu.pagefaultLatency::8            0                       # Latency to complete the pagefault
system.gpu.shader_mmu.pagefaultLatency::9            0                       # Latency to complete the pagefault
system.gpu.shader_mmu.pagefaultLatency::10            0                       # Latency to complete the pagefault
system.gpu.shader_mmu.pagefaultLatency::11            0                       # Latency to complete the pagefault
system.gpu.shader_mmu.pagefaultLatency::12            0                       # Latency to complete the pagefault
system.gpu.shader_mmu.pagefaultLatency::13            0                       # Latency to complete the pagefault
system.gpu.shader_mmu.pagefaultLatency::14            0                       # Latency to complete the pagefault
system.gpu.shader_mmu.pagefaultLatency::15            0                       # Latency to complete the pagefault
system.gpu.shader_mmu.pagefaultLatency::16            0                       # Latency to complete the pagefault
system.gpu.shader_mmu.pagefaultLatency::17            0                       # Latency to complete the pagefault
system.gpu.shader_mmu.pagefaultLatency::18            0                       # Latency to complete the pagefault
system.gpu.shader_mmu.pagefaultLatency::19            0                       # Latency to complete the pagefault
system.gpu.shader_mmu.pagefaultLatency::20            0                       # Latency to complete the pagefault
system.gpu.shader_mmu.pagefaultLatency::21            0                       # Latency to complete the pagefault
system.gpu.shader_mmu.pagefaultLatency::22            0                       # Latency to complete the pagefault
system.gpu.shader_mmu.pagefaultLatency::23            0                       # Latency to complete the pagefault
system.gpu.shader_mmu.pagefaultLatency::24            0                       # Latency to complete the pagefault
system.gpu.shader_mmu.pagefaultLatency::25            0                       # Latency to complete the pagefault
system.gpu.shader_mmu.pagefaultLatency::26            0                       # Latency to complete the pagefault
system.gpu.shader_mmu.pagefaultLatency::27            0                       # Latency to complete the pagefault
system.gpu.shader_mmu.pagefaultLatency::28            0                       # Latency to complete the pagefault
system.gpu.shader_mmu.pagefaultLatency::29            0                       # Latency to complete the pagefault
system.gpu.shader_mmu.pagefaultLatency::30            0                       # Latency to complete the pagefault
system.gpu.shader_mmu.pagefaultLatency::31            0                       # Latency to complete the pagefault
system.gpu.shader_mmu.pagefaultLatency::total            0                       # Latency to complete the pagefault
system.gpu.shader_mmu.concurrentWalks::samples            0                       # Number of outstanding walks
system.gpu.shader_mmu.concurrentWalks::mean          nan                       # Number of outstanding walks
system.gpu.shader_mmu.concurrentWalks::gmean          nan                       # Number of outstanding walks
system.gpu.shader_mmu.concurrentWalks::stdev          nan                       # Number of outstanding walks
system.gpu.shader_mmu.concurrentWalks::0            0                       # Number of outstanding walks
system.gpu.shader_mmu.concurrentWalks::1            0                       # Number of outstanding walks
system.gpu.shader_mmu.concurrentWalks::2            0                       # Number of outstanding walks
system.gpu.shader_mmu.concurrentWalks::3            0                       # Number of outstanding walks
system.gpu.shader_mmu.concurrentWalks::4            0                       # Number of outstanding walks
system.gpu.shader_mmu.concurrentWalks::5            0                       # Number of outstanding walks
system.gpu.shader_mmu.concurrentWalks::6            0                       # Number of outstanding walks
system.gpu.shader_mmu.concurrentWalks::7            0                       # Number of outstanding walks
system.gpu.shader_mmu.concurrentWalks::8            0                       # Number of outstanding walks
system.gpu.shader_mmu.concurrentWalks::9            0                       # Number of outstanding walks
system.gpu.shader_mmu.concurrentWalks::10            0                       # Number of outstanding walks
system.gpu.shader_mmu.concurrentWalks::11            0                       # Number of outstanding walks
system.gpu.shader_mmu.concurrentWalks::12            0                       # Number of outstanding walks
system.gpu.shader_mmu.concurrentWalks::13            0                       # Number of outstanding walks
system.gpu.shader_mmu.concurrentWalks::14            0                       # Number of outstanding walks
system.gpu.shader_mmu.concurrentWalks::15            0                       # Number of outstanding walks
system.gpu.shader_mmu.concurrentWalks::total            0                       # Number of outstanding walks
system.gpu.shader_mmu.pagewalkLatency::samples            0                       # Latency to complete the pagewalk
system.gpu.shader_mmu.pagewalkLatency::mean          nan                       # Latency to complete the pagewalk
system.gpu.shader_mmu.pagewalkLatency::gmean          nan                       # Latency to complete the pagewalk
system.gpu.shader_mmu.pagewalkLatency::stdev          nan                       # Latency to complete the pagewalk
system.gpu.shader_mmu.pagewalkLatency::0            0                       # Latency to complete the pagewalk
system.gpu.shader_mmu.pagewalkLatency::1            0                       # Latency to complete the pagewalk
system.gpu.shader_mmu.pagewalkLatency::2            0                       # Latency to complete the pagewalk
system.gpu.shader_mmu.pagewalkLatency::3            0                       # Latency to complete the pagewalk
system.gpu.shader_mmu.pagewalkLatency::4            0                       # Latency to complete the pagewalk
system.gpu.shader_mmu.pagewalkLatency::5            0                       # Latency to complete the pagewalk
system.gpu.shader_mmu.pagewalkLatency::6            0                       # Latency to complete the pagewalk
system.gpu.shader_mmu.pagewalkLatency::7            0                       # Latency to complete the pagewalk
system.gpu.shader_mmu.pagewalkLatency::8            0                       # Latency to complete the pagewalk
system.gpu.shader_mmu.pagewalkLatency::9            0                       # Latency to complete the pagewalk
system.gpu.shader_mmu.pagewalkLatency::10            0                       # Latency to complete the pagewalk
system.gpu.shader_mmu.pagewalkLatency::11            0                       # Latency to complete the pagewalk
system.gpu.shader_mmu.pagewalkLatency::12            0                       # Latency to complete the pagewalk
system.gpu.shader_mmu.pagewalkLatency::13            0                       # Latency to complete the pagewalk
system.gpu.shader_mmu.pagewalkLatency::14            0                       # Latency to complete the pagewalk
system.gpu.shader_mmu.pagewalkLatency::15            0                       # Latency to complete the pagewalk
system.gpu.shader_mmu.pagewalkLatency::16            0                       # Latency to complete the pagewalk
system.gpu.shader_mmu.pagewalkLatency::17            0                       # Latency to complete the pagewalk
system.gpu.shader_mmu.pagewalkLatency::18            0                       # Latency to complete the pagewalk
system.gpu.shader_mmu.pagewalkLatency::19            0                       # Latency to complete the pagewalk
system.gpu.shader_mmu.pagewalkLatency::20            0                       # Latency to complete the pagewalk
system.gpu.shader_mmu.pagewalkLatency::21            0                       # Latency to complete the pagewalk
system.gpu.shader_mmu.pagewalkLatency::22            0                       # Latency to complete the pagewalk
system.gpu.shader_mmu.pagewalkLatency::23            0                       # Latency to complete the pagewalk
system.gpu.shader_mmu.pagewalkLatency::24            0                       # Latency to complete the pagewalk
system.gpu.shader_mmu.pagewalkLatency::25            0                       # Latency to complete the pagewalk
system.gpu.shader_mmu.pagewalkLatency::26            0                       # Latency to complete the pagewalk
system.gpu.shader_mmu.pagewalkLatency::27            0                       # Latency to complete the pagewalk
system.gpu.shader_mmu.pagewalkLatency::28            0                       # Latency to complete the pagewalk
system.gpu.shader_mmu.pagewalkLatency::29            0                       # Latency to complete the pagewalk
system.gpu.shader_mmu.pagewalkLatency::30            0                       # Latency to complete the pagewalk
system.gpu.shader_mmu.pagewalkLatency::31            0                       # Latency to complete the pagewalk
system.gpu.shader_mmu.pagewalkLatency::total            0                       # Latency to complete the pagewalk
system.gpu.kernels_started                          0                       # Number of kernels started
system.gpu.kernels_completed                        0                       # Number of kernels completed
system.gpu.ce.device_dtb.hits                       0                       # Number of hits in this TLB
system.gpu.ce.device_dtb.misses                     0                       # Number of misses in this TLB
system.gpu.ce.device_dtb.hitRate                  nan                       # Hit rate for this TLB
system.gpu.ce.host_dtb.hits                         0                       # Number of hits in this TLB
system.gpu.ce.host_dtb.misses                       0                       # Number of misses in this TLB
system.gpu.ce.host_dtb.hitRate                    nan                       # Hit rate for this TLB
system.gpu.shader_cores0.itb.hits                   0                       # Number of hits in this TLB
system.gpu.shader_cores0.itb.misses                 0                       # Number of misses in this TLB
system.gpu.shader_cores0.itb.hitRate              nan                       # Hit rate for this TLB
system.gpu.shader_cores0.local_loads                0                       # Number of loads from local space
system.gpu.shader_cores0.local_stores               0                       # Number of stores to local space
system.gpu.shader_cores0.shared_loads               0                       # Number of loads from shared space
system.gpu.shader_cores0.shared_stores              0                       # Number of stores to shared space
system.gpu.shader_cores0.param_kernel_loads            0                       # Number of loads from kernel parameter space
system.gpu.shader_cores0.param_local_loads            0                       # Number of loads from local parameter space
system.gpu.shader_cores0.param_local_stores            0                       # Number of stores to local parameter space
system.gpu.shader_cores0.const_loads                0                       # Number of loads from constant space
system.gpu.shader_cores0.tex_loads                  0                       # Number of loads from texture space
system.gpu.shader_cores0.global_loads               0                       # Number of loads from global space
system.gpu.shader_cores0.global_stores              0                       # Number of stores to global space
system.gpu.shader_cores0.surf_loads                 0                       # Number of loads from surface space
system.gpu.shader_cores0.generic_loads              0                       # Number of loads from generic spaces (global, shared, local)
system.gpu.shader_cores0.generic_stores             0                       # Number of stores to generic spaces (global, shared, local)
system.gpu.shader_cores0.inst_cache_requests            0                       # Number of instruction cache requests sent
system.gpu.shader_cores0.inst_cache_retries            0                       # Number of instruction cache retries
system.gpu.shader_cores0.inst_counts::0             0                       # Inst counts: 1: ALU, 2: MAD, 3: CTRL, 4: SFU, 5: MEM, 6: TEX, 7: NOP
system.gpu.shader_cores0.inst_counts::1             0                       # Inst counts: 1: ALU, 2: MAD, 3: CTRL, 4: SFU, 5: MEM, 6: TEX, 7: NOP
system.gpu.shader_cores0.inst_counts::2             0                       # Inst counts: 1: ALU, 2: MAD, 3: CTRL, 4: SFU, 5: MEM, 6: TEX, 7: NOP
system.gpu.shader_cores0.inst_counts::3             0                       # Inst counts: 1: ALU, 2: MAD, 3: CTRL, 4: SFU, 5: MEM, 6: TEX, 7: NOP
system.gpu.shader_cores0.inst_counts::4             0                       # Inst counts: 1: ALU, 2: MAD, 3: CTRL, 4: SFU, 5: MEM, 6: TEX, 7: NOP
system.gpu.shader_cores0.inst_counts::5             0                       # Inst counts: 1: ALU, 2: MAD, 3: CTRL, 4: SFU, 5: MEM, 6: TEX, 7: NOP
system.gpu.shader_cores0.inst_counts::6             0                       # Inst counts: 1: ALU, 2: MAD, 3: CTRL, 4: SFU, 5: MEM, 6: TEX, 7: NOP
system.gpu.shader_cores0.inst_counts::7             0                       # Inst counts: 1: ALU, 2: MAD, 3: CTRL, 4: SFU, 5: MEM, 6: TEX, 7: NOP
system.gpu.shader_cores0.activeCycles               0                       # Number of cycles this shader was executing a CTA
system.gpu.shader_cores0.notStalledCycles            0                       # Number of cycles this shader was actually executing at least one instance
system.gpu.shader_cores0.instInstances              0                       # Total instructions executed by all PEs in the core
system.gpu.shader_cores0.instPerCycle             nan                       # Instruction instances per cycle
system.gpu.shader_cores0.kernels_completed            0                       # Number of kernels completed
system.gpu.shader_cores0.lsq.data_tlb.hits            0                       # Number of hits in this TLB
system.gpu.shader_cores0.lsq.data_tlb.misses            0                       # Number of misses in this TLB
system.gpu.shader_cores0.lsq.data_tlb.hitRate          nan                       # Hit rate for this TLB
system.gpu.shader_cores0.lsq.warpInstBufActive::samples            0                       # Histogram of number of active warp inst buffers at a given time
system.gpu.shader_cores0.lsq.warpInstBufActive::mean          nan                       # Histogram of number of active warp inst buffers at a given time
system.gpu.shader_cores0.lsq.warpInstBufActive::gmean          nan                       # Histogram of number of active warp inst buffers at a given time
system.gpu.shader_cores0.lsq.warpInstBufActive::stdev          nan                       # Histogram of number of active warp inst buffers at a given time
system.gpu.shader_cores0.lsq.warpInstBufActive::0            0                       # Histogram of number of active warp inst buffers at a given time
system.gpu.shader_cores0.lsq.warpInstBufActive::1            0                       # Histogram of number of active warp inst buffers at a given time
system.gpu.shader_cores0.lsq.warpInstBufActive::2            0                       # Histogram of number of active warp inst buffers at a given time
system.gpu.shader_cores0.lsq.warpInstBufActive::3            0                       # Histogram of number of active warp inst buffers at a given time
system.gpu.shader_cores0.lsq.warpInstBufActive::4            0                       # Histogram of number of active warp inst buffers at a given time
system.gpu.shader_cores0.lsq.warpInstBufActive::5            0                       # Histogram of number of active warp inst buffers at a given time
system.gpu.shader_cores0.lsq.warpInstBufActive::6            0                       # Histogram of number of active warp inst buffers at a given time
system.gpu.shader_cores0.lsq.warpInstBufActive::7            0                       # Histogram of number of active warp inst buffers at a given time
system.gpu.shader_cores0.lsq.warpInstBufActive::8            0                       # Histogram of number of active warp inst buffers at a given time
system.gpu.shader_cores0.lsq.warpInstBufActive::9            0                       # Histogram of number of active warp inst buffers at a given time
system.gpu.shader_cores0.lsq.warpInstBufActive::10            0                       # Histogram of number of active warp inst buffers at a given time
system.gpu.shader_cores0.lsq.warpInstBufActive::11            0                       # Histogram of number of active warp inst buffers at a given time
system.gpu.shader_cores0.lsq.warpInstBufActive::12            0                       # Histogram of number of active warp inst buffers at a given time
system.gpu.shader_cores0.lsq.warpInstBufActive::13            0                       # Histogram of number of active warp inst buffers at a given time
system.gpu.shader_cores0.lsq.warpInstBufActive::14            0                       # Histogram of number of active warp inst buffers at a given time
system.gpu.shader_cores0.lsq.warpInstBufActive::15            0                       # Histogram of number of active warp inst buffers at a given time
system.gpu.shader_cores0.lsq.warpInstBufActive::16            0                       # Histogram of number of active warp inst buffers at a given time
system.gpu.shader_cores0.lsq.warpInstBufActive::17            0                       # Histogram of number of active warp inst buffers at a given time
system.gpu.shader_cores0.lsq.warpInstBufActive::18            0                       # Histogram of number of active warp inst buffers at a given time
system.gpu.shader_cores0.lsq.warpInstBufActive::19            0                       # Histogram of number of active warp inst buffers at a given time
system.gpu.shader_cores0.lsq.warpInstBufActive::20            0                       # Histogram of number of active warp inst buffers at a given time
system.gpu.shader_cores0.lsq.warpInstBufActive::21            0                       # Histogram of number of active warp inst buffers at a given time
system.gpu.shader_cores0.lsq.warpInstBufActive::22            0                       # Histogram of number of active warp inst buffers at a given time
system.gpu.shader_cores0.lsq.warpInstBufActive::23            0                       # Histogram of number of active warp inst buffers at a given time
system.gpu.shader_cores0.lsq.warpInstBufActive::24            0                       # Histogram of number of active warp inst buffers at a given time
system.gpu.shader_cores0.lsq.warpInstBufActive::25            0                       # Histogram of number of active warp inst buffers at a given time
system.gpu.shader_cores0.lsq.warpInstBufActive::26            0                       # Histogram of number of active warp inst buffers at a given time
system.gpu.shader_cores0.lsq.warpInstBufActive::27            0                       # Histogram of number of active warp inst buffers at a given time
system.gpu.shader_cores0.lsq.warpInstBufActive::28            0                       # Histogram of number of active warp inst buffers at a given time
system.gpu.shader_cores0.lsq.warpInstBufActive::29            0                       # Histogram of number of active warp inst buffers at a given time
system.gpu.shader_cores0.lsq.warpInstBufActive::30            0                       # Histogram of number of active warp inst buffers at a given time
system.gpu.shader_cores0.lsq.warpInstBufActive::31            0                       # Histogram of number of active warp inst buffers at a given time
system.gpu.shader_cores0.lsq.warpInstBufActive::32            0                       # Histogram of number of active warp inst buffers at a given time
system.gpu.shader_cores0.lsq.warpInstBufActive::33            0                       # Histogram of number of active warp inst buffers at a given time
system.gpu.shader_cores0.lsq.warpInstBufActive::34            0                       # Histogram of number of active warp inst buffers at a given time
system.gpu.shader_cores0.lsq.warpInstBufActive::35            0                       # Histogram of number of active warp inst buffers at a given time
system.gpu.shader_cores0.lsq.warpInstBufActive::36            0                       # Histogram of number of active warp inst buffers at a given time
system.gpu.shader_cores0.lsq.warpInstBufActive::37            0                       # Histogram of number of active warp inst buffers at a given time
system.gpu.shader_cores0.lsq.warpInstBufActive::38            0                       # Histogram of number of active warp inst buffers at a given time
system.gpu.shader_cores0.lsq.warpInstBufActive::39            0                       # Histogram of number of active warp inst buffers at a given time
system.gpu.shader_cores0.lsq.warpInstBufActive::40            0                       # Histogram of number of active warp inst buffers at a given time
system.gpu.shader_cores0.lsq.warpInstBufActive::41            0                       # Histogram of number of active warp inst buffers at a given time
system.gpu.shader_cores0.lsq.warpInstBufActive::42            0                       # Histogram of number of active warp inst buffers at a given time
system.gpu.shader_cores0.lsq.warpInstBufActive::43            0                       # Histogram of number of active warp inst buffers at a given time
system.gpu.shader_cores0.lsq.warpInstBufActive::44            0                       # Histogram of number of active warp inst buffers at a given time
system.gpu.shader_cores0.lsq.warpInstBufActive::45            0                       # Histogram of number of active warp inst buffers at a given time
system.gpu.shader_cores0.lsq.warpInstBufActive::46            0                       # Histogram of number of active warp inst buffers at a given time
system.gpu.shader_cores0.lsq.warpInstBufActive::47            0                       # Histogram of number of active warp inst buffers at a given time
system.gpu.shader_cores0.lsq.warpInstBufActive::48            0                       # Histogram of number of active warp inst buffers at a given time
system.gpu.shader_cores0.lsq.warpInstBufActive::49            0                       # Histogram of number of active warp inst buffers at a given time
system.gpu.shader_cores0.lsq.warpInstBufActive::50            0                       # Histogram of number of active warp inst buffers at a given time
system.gpu.shader_cores0.lsq.warpInstBufActive::51            0                       # Histogram of number of active warp inst buffers at a given time
system.gpu.shader_cores0.lsq.warpInstBufActive::52            0                       # Histogram of number of active warp inst buffers at a given time
system.gpu.shader_cores0.lsq.warpInstBufActive::53            0                       # Histogram of number of active warp inst buffers at a given time
system.gpu.shader_cores0.lsq.warpInstBufActive::54            0                       # Histogram of number of active warp inst buffers at a given time
system.gpu.shader_cores0.lsq.warpInstBufActive::55            0                       # Histogram of number of active warp inst buffers at a given time
system.gpu.shader_cores0.lsq.warpInstBufActive::56            0                       # Histogram of number of active warp inst buffers at a given time
system.gpu.shader_cores0.lsq.warpInstBufActive::57            0                       # Histogram of number of active warp inst buffers at a given time
system.gpu.shader_cores0.lsq.warpInstBufActive::58            0                       # Histogram of number of active warp inst buffers at a given time
system.gpu.shader_cores0.lsq.warpInstBufActive::59            0                       # Histogram of number of active warp inst buffers at a given time
system.gpu.shader_cores0.lsq.warpInstBufActive::60            0                       # Histogram of number of active warp inst buffers at a given time
system.gpu.shader_cores0.lsq.warpInstBufActive::61            0                       # Histogram of number of active warp inst buffers at a given time
system.gpu.shader_cores0.lsq.warpInstBufActive::62            0                       # Histogram of number of active warp inst buffers at a given time
system.gpu.shader_cores0.lsq.warpInstBufActive::63            0                       # Histogram of number of active warp inst buffers at a given time
system.gpu.shader_cores0.lsq.warpInstBufActive::64            0                       # Histogram of number of active warp inst buffers at a given time
system.gpu.shader_cores0.lsq.warpInstBufActive::total            0                       # Histogram of number of active warp inst buffers at a given time
system.gpu.shader_cores0.lsq.cacheAccesses            0                       # Average number of concurrent outstanding cache accesses
system.gpu.shader_cores0.lsq.writebackBlockedCycles            0                       # Number of cycles blocked for core writeback stage
system.gpu.shader_cores0.lsq.mshrHitQueued            0                       # Number of hits on blocked lines in MSHRs
system.gpu.shader_cores0.lsq.mshrsFullCycles            0                       # Number of cycles stalled waiting for an MSHR
system.gpu.shader_cores0.lsq.mshrsFullCount            0                       # Number of times MSHRs filled
system.gpu.shader_cores0.lsq.warpCoalescedAccesses::samples            0                       # Number of coalesced accesses per warp instruction
system.gpu.shader_cores0.lsq.warpCoalescedAccesses::mean          nan                       # Number of coalesced accesses per warp instruction
system.gpu.shader_cores0.lsq.warpCoalescedAccesses::gmean          nan                       # Number of coalesced accesses per warp instruction
system.gpu.shader_cores0.lsq.warpCoalescedAccesses::stdev          nan                       # Number of coalesced accesses per warp instruction
system.gpu.shader_cores0.lsq.warpCoalescedAccesses::0            0                       # Number of coalesced accesses per warp instruction
system.gpu.shader_cores0.lsq.warpCoalescedAccesses::1            0                       # Number of coalesced accesses per warp instruction
system.gpu.shader_cores0.lsq.warpCoalescedAccesses::2            0                       # Number of coalesced accesses per warp instruction
system.gpu.shader_cores0.lsq.warpCoalescedAccesses::3            0                       # Number of coalesced accesses per warp instruction
system.gpu.shader_cores0.lsq.warpCoalescedAccesses::4            0                       # Number of coalesced accesses per warp instruction
system.gpu.shader_cores0.lsq.warpCoalescedAccesses::5            0                       # Number of coalesced accesses per warp instruction
system.gpu.shader_cores0.lsq.warpCoalescedAccesses::6            0                       # Number of coalesced accesses per warp instruction
system.gpu.shader_cores0.lsq.warpCoalescedAccesses::7            0                       # Number of coalesced accesses per warp instruction
system.gpu.shader_cores0.lsq.warpCoalescedAccesses::8            0                       # Number of coalesced accesses per warp instruction
system.gpu.shader_cores0.lsq.warpCoalescedAccesses::9            0                       # Number of coalesced accesses per warp instruction
system.gpu.shader_cores0.lsq.warpCoalescedAccesses::10            0                       # Number of coalesced accesses per warp instruction
system.gpu.shader_cores0.lsq.warpCoalescedAccesses::11            0                       # Number of coalesced accesses per warp instruction
system.gpu.shader_cores0.lsq.warpCoalescedAccesses::12            0                       # Number of coalesced accesses per warp instruction
system.gpu.shader_cores0.lsq.warpCoalescedAccesses::13            0                       # Number of coalesced accesses per warp instruction
system.gpu.shader_cores0.lsq.warpCoalescedAccesses::14            0                       # Number of coalesced accesses per warp instruction
system.gpu.shader_cores0.lsq.warpCoalescedAccesses::15            0                       # Number of coalesced accesses per warp instruction
system.gpu.shader_cores0.lsq.warpCoalescedAccesses::16            0                       # Number of coalesced accesses per warp instruction
system.gpu.shader_cores0.lsq.warpCoalescedAccesses::17            0                       # Number of coalesced accesses per warp instruction
system.gpu.shader_cores0.lsq.warpCoalescedAccesses::18            0                       # Number of coalesced accesses per warp instruction
system.gpu.shader_cores0.lsq.warpCoalescedAccesses::19            0                       # Number of coalesced accesses per warp instruction
system.gpu.shader_cores0.lsq.warpCoalescedAccesses::20            0                       # Number of coalesced accesses per warp instruction
system.gpu.shader_cores0.lsq.warpCoalescedAccesses::21            0                       # Number of coalesced accesses per warp instruction
system.gpu.shader_cores0.lsq.warpCoalescedAccesses::22            0                       # Number of coalesced accesses per warp instruction
system.gpu.shader_cores0.lsq.warpCoalescedAccesses::23            0                       # Number of coalesced accesses per warp instruction
system.gpu.shader_cores0.lsq.warpCoalescedAccesses::24            0                       # Number of coalesced accesses per warp instruction
system.gpu.shader_cores0.lsq.warpCoalescedAccesses::25            0                       # Number of coalesced accesses per warp instruction
system.gpu.shader_cores0.lsq.warpCoalescedAccesses::26            0                       # Number of coalesced accesses per warp instruction
system.gpu.shader_cores0.lsq.warpCoalescedAccesses::27            0                       # Number of coalesced accesses per warp instruction
system.gpu.shader_cores0.lsq.warpCoalescedAccesses::28            0                       # Number of coalesced accesses per warp instruction
system.gpu.shader_cores0.lsq.warpCoalescedAccesses::29            0                       # Number of coalesced accesses per warp instruction
system.gpu.shader_cores0.lsq.warpCoalescedAccesses::30            0                       # Number of coalesced accesses per warp instruction
system.gpu.shader_cores0.lsq.warpCoalescedAccesses::31            0                       # Number of coalesced accesses per warp instruction
system.gpu.shader_cores0.lsq.warpCoalescedAccesses::32            0                       # Number of coalesced accesses per warp instruction
system.gpu.shader_cores0.lsq.warpCoalescedAccesses::total            0                       # Number of coalesced accesses per warp instruction
system.gpu.shader_cores0.lsq.warpLatencyRead::samples            0                       # Latency in cycles for whole warp to finish the read
system.gpu.shader_cores0.lsq.warpLatencyRead::mean          nan                       # Latency in cycles for whole warp to finish the read
system.gpu.shader_cores0.lsq.warpLatencyRead::gmean          nan                       # Latency in cycles for whole warp to finish the read
system.gpu.shader_cores0.lsq.warpLatencyRead::stdev          nan                       # Latency in cycles for whole warp to finish the read
system.gpu.shader_cores0.lsq.warpLatencyRead::0            0                       # Latency in cycles for whole warp to finish the read
system.gpu.shader_cores0.lsq.warpLatencyRead::1            0                       # Latency in cycles for whole warp to finish the read
system.gpu.shader_cores0.lsq.warpLatencyRead::2            0                       # Latency in cycles for whole warp to finish the read
system.gpu.shader_cores0.lsq.warpLatencyRead::3            0                       # Latency in cycles for whole warp to finish the read
system.gpu.shader_cores0.lsq.warpLatencyRead::4            0                       # Latency in cycles for whole warp to finish the read
system.gpu.shader_cores0.lsq.warpLatencyRead::5            0                       # Latency in cycles for whole warp to finish the read
system.gpu.shader_cores0.lsq.warpLatencyRead::6            0                       # Latency in cycles for whole warp to finish the read
system.gpu.shader_cores0.lsq.warpLatencyRead::7            0                       # Latency in cycles for whole warp to finish the read
system.gpu.shader_cores0.lsq.warpLatencyRead::8            0                       # Latency in cycles for whole warp to finish the read
system.gpu.shader_cores0.lsq.warpLatencyRead::9            0                       # Latency in cycles for whole warp to finish the read
system.gpu.shader_cores0.lsq.warpLatencyRead::10            0                       # Latency in cycles for whole warp to finish the read
system.gpu.shader_cores0.lsq.warpLatencyRead::11            0                       # Latency in cycles for whole warp to finish the read
system.gpu.shader_cores0.lsq.warpLatencyRead::12            0                       # Latency in cycles for whole warp to finish the read
system.gpu.shader_cores0.lsq.warpLatencyRead::13            0                       # Latency in cycles for whole warp to finish the read
system.gpu.shader_cores0.lsq.warpLatencyRead::14            0                       # Latency in cycles for whole warp to finish the read
system.gpu.shader_cores0.lsq.warpLatencyRead::15            0                       # Latency in cycles for whole warp to finish the read
system.gpu.shader_cores0.lsq.warpLatencyRead::total            0                       # Latency in cycles for whole warp to finish the read
system.gpu.shader_cores0.lsq.warpLatencyWrite::samples            0                       # Latency in cycles for whole warp to finish the write
system.gpu.shader_cores0.lsq.warpLatencyWrite::mean          nan                       # Latency in cycles for whole warp to finish the write
system.gpu.shader_cores0.lsq.warpLatencyWrite::gmean          nan                       # Latency in cycles for whole warp to finish the write
system.gpu.shader_cores0.lsq.warpLatencyWrite::stdev          nan                       # Latency in cycles for whole warp to finish the write
system.gpu.shader_cores0.lsq.warpLatencyWrite::0            0                       # Latency in cycles for whole warp to finish the write
system.gpu.shader_cores0.lsq.warpLatencyWrite::1            0                       # Latency in cycles for whole warp to finish the write
system.gpu.shader_cores0.lsq.warpLatencyWrite::2            0                       # Latency in cycles for whole warp to finish the write
system.gpu.shader_cores0.lsq.warpLatencyWrite::3            0                       # Latency in cycles for whole warp to finish the write
system.gpu.shader_cores0.lsq.warpLatencyWrite::4            0                       # Latency in cycles for whole warp to finish the write
system.gpu.shader_cores0.lsq.warpLatencyWrite::5            0                       # Latency in cycles for whole warp to finish the write
system.gpu.shader_cores0.lsq.warpLatencyWrite::6            0                       # Latency in cycles for whole warp to finish the write
system.gpu.shader_cores0.lsq.warpLatencyWrite::7            0                       # Latency in cycles for whole warp to finish the write
system.gpu.shader_cores0.lsq.warpLatencyWrite::8            0                       # Latency in cycles for whole warp to finish the write
system.gpu.shader_cores0.lsq.warpLatencyWrite::9            0                       # Latency in cycles for whole warp to finish the write
system.gpu.shader_cores0.lsq.warpLatencyWrite::10            0                       # Latency in cycles for whole warp to finish the write
system.gpu.shader_cores0.lsq.warpLatencyWrite::11            0                       # Latency in cycles for whole warp to finish the write
system.gpu.shader_cores0.lsq.warpLatencyWrite::12            0                       # Latency in cycles for whole warp to finish the write
system.gpu.shader_cores0.lsq.warpLatencyWrite::13            0                       # Latency in cycles for whole warp to finish the write
system.gpu.shader_cores0.lsq.warpLatencyWrite::14            0                       # Latency in cycles for whole warp to finish the write
system.gpu.shader_cores0.lsq.warpLatencyWrite::15            0                       # Latency in cycles for whole warp to finish the write
system.gpu.shader_cores0.lsq.warpLatencyWrite::total            0                       # Latency in cycles for whole warp to finish the write
system.gpu.shader_cores0.lsq.warpLatencyFence::samples            0                       # Latency in cycles for whole warp to finish the fence
system.gpu.shader_cores0.lsq.warpLatencyFence::mean          nan                       # Latency in cycles for whole warp to finish the fence
system.gpu.shader_cores0.lsq.warpLatencyFence::gmean          nan                       # Latency in cycles for whole warp to finish the fence
system.gpu.shader_cores0.lsq.warpLatencyFence::stdev          nan                       # Latency in cycles for whole warp to finish the fence
system.gpu.shader_cores0.lsq.warpLatencyFence::0            0                       # Latency in cycles for whole warp to finish the fence
system.gpu.shader_cores0.lsq.warpLatencyFence::1            0                       # Latency in cycles for whole warp to finish the fence
system.gpu.shader_cores0.lsq.warpLatencyFence::2            0                       # Latency in cycles for whole warp to finish the fence
system.gpu.shader_cores0.lsq.warpLatencyFence::3            0                       # Latency in cycles for whole warp to finish the fence
system.gpu.shader_cores0.lsq.warpLatencyFence::4            0                       # Latency in cycles for whole warp to finish the fence
system.gpu.shader_cores0.lsq.warpLatencyFence::5            0                       # Latency in cycles for whole warp to finish the fence
system.gpu.shader_cores0.lsq.warpLatencyFence::6            0                       # Latency in cycles for whole warp to finish the fence
system.gpu.shader_cores0.lsq.warpLatencyFence::7            0                       # Latency in cycles for whole warp to finish the fence
system.gpu.shader_cores0.lsq.warpLatencyFence::8            0                       # Latency in cycles for whole warp to finish the fence
system.gpu.shader_cores0.lsq.warpLatencyFence::9            0                       # Latency in cycles for whole warp to finish the fence
system.gpu.shader_cores0.lsq.warpLatencyFence::10            0                       # Latency in cycles for whole warp to finish the fence
system.gpu.shader_cores0.lsq.warpLatencyFence::11            0                       # Latency in cycles for whole warp to finish the fence
system.gpu.shader_cores0.lsq.warpLatencyFence::12            0                       # Latency in cycles for whole warp to finish the fence
system.gpu.shader_cores0.lsq.warpLatencyFence::13            0                       # Latency in cycles for whole warp to finish the fence
system.gpu.shader_cores0.lsq.warpLatencyFence::14            0                       # Latency in cycles for whole warp to finish the fence
system.gpu.shader_cores0.lsq.warpLatencyFence::15            0                       # Latency in cycles for whole warp to finish the fence
system.gpu.shader_cores0.lsq.warpLatencyFence::total            0                       # Latency in cycles for whole warp to finish the fence
system.gpu.shader_cores0.lsq.warpLatencyAtomic::samples            0                       # Latency in cycles for whole warp to finish the atomic
system.gpu.shader_cores0.lsq.warpLatencyAtomic::mean          nan                       # Latency in cycles for whole warp to finish the atomic
system.gpu.shader_cores0.lsq.warpLatencyAtomic::gmean          nan                       # Latency in cycles for whole warp to finish the atomic
system.gpu.shader_cores0.lsq.warpLatencyAtomic::stdev          nan                       # Latency in cycles for whole warp to finish the atomic
system.gpu.shader_cores0.lsq.warpLatencyAtomic::0            0                       # Latency in cycles for whole warp to finish the atomic
system.gpu.shader_cores0.lsq.warpLatencyAtomic::1            0                       # Latency in cycles for whole warp to finish the atomic
system.gpu.shader_cores0.lsq.warpLatencyAtomic::2            0                       # Latency in cycles for whole warp to finish the atomic
system.gpu.shader_cores0.lsq.warpLatencyAtomic::3            0                       # Latency in cycles for whole warp to finish the atomic
system.gpu.shader_cores0.lsq.warpLatencyAtomic::4            0                       # Latency in cycles for whole warp to finish the atomic
system.gpu.shader_cores0.lsq.warpLatencyAtomic::5            0                       # Latency in cycles for whole warp to finish the atomic
system.gpu.shader_cores0.lsq.warpLatencyAtomic::6            0                       # Latency in cycles for whole warp to finish the atomic
system.gpu.shader_cores0.lsq.warpLatencyAtomic::7            0                       # Latency in cycles for whole warp to finish the atomic
system.gpu.shader_cores0.lsq.warpLatencyAtomic::8            0                       # Latency in cycles for whole warp to finish the atomic
system.gpu.shader_cores0.lsq.warpLatencyAtomic::9            0                       # Latency in cycles for whole warp to finish the atomic
system.gpu.shader_cores0.lsq.warpLatencyAtomic::10            0                       # Latency in cycles for whole warp to finish the atomic
system.gpu.shader_cores0.lsq.warpLatencyAtomic::11            0                       # Latency in cycles for whole warp to finish the atomic
system.gpu.shader_cores0.lsq.warpLatencyAtomic::12            0                       # Latency in cycles for whole warp to finish the atomic
system.gpu.shader_cores0.lsq.warpLatencyAtomic::13            0                       # Latency in cycles for whole warp to finish the atomic
system.gpu.shader_cores0.lsq.warpLatencyAtomic::14            0                       # Latency in cycles for whole warp to finish the atomic
system.gpu.shader_cores0.lsq.warpLatencyAtomic::15            0                       # Latency in cycles for whole warp to finish the atomic
system.gpu.shader_cores0.lsq.warpLatencyAtomic::total            0                       # Latency in cycles for whole warp to finish the atomic
system.gpu.shader_cores0.lsq.tlbMissLatency::samples            0                       # Latency in cycles for TLB miss
system.gpu.shader_cores0.lsq.tlbMissLatency::mean          nan                       # Latency in cycles for TLB miss
system.gpu.shader_cores0.lsq.tlbMissLatency::gmean          nan                       # Latency in cycles for TLB miss
system.gpu.shader_cores0.lsq.tlbMissLatency::stdev          nan                       # Latency in cycles for TLB miss
system.gpu.shader_cores0.lsq.tlbMissLatency::0            0                       # Latency in cycles for TLB miss
system.gpu.shader_cores0.lsq.tlbMissLatency::1            0                       # Latency in cycles for TLB miss
system.gpu.shader_cores0.lsq.tlbMissLatency::2            0                       # Latency in cycles for TLB miss
system.gpu.shader_cores0.lsq.tlbMissLatency::3            0                       # Latency in cycles for TLB miss
system.gpu.shader_cores0.lsq.tlbMissLatency::4            0                       # Latency in cycles for TLB miss
system.gpu.shader_cores0.lsq.tlbMissLatency::5            0                       # Latency in cycles for TLB miss
system.gpu.shader_cores0.lsq.tlbMissLatency::6            0                       # Latency in cycles for TLB miss
system.gpu.shader_cores0.lsq.tlbMissLatency::7            0                       # Latency in cycles for TLB miss
system.gpu.shader_cores0.lsq.tlbMissLatency::8            0                       # Latency in cycles for TLB miss
system.gpu.shader_cores0.lsq.tlbMissLatency::9            0                       # Latency in cycles for TLB miss
system.gpu.shader_cores0.lsq.tlbMissLatency::10            0                       # Latency in cycles for TLB miss
system.gpu.shader_cores0.lsq.tlbMissLatency::11            0                       # Latency in cycles for TLB miss
system.gpu.shader_cores0.lsq.tlbMissLatency::12            0                       # Latency in cycles for TLB miss
system.gpu.shader_cores0.lsq.tlbMissLatency::13            0                       # Latency in cycles for TLB miss
system.gpu.shader_cores0.lsq.tlbMissLatency::14            0                       # Latency in cycles for TLB miss
system.gpu.shader_cores0.lsq.tlbMissLatency::15            0                       # Latency in cycles for TLB miss
system.gpu.shader_cores0.lsq.tlbMissLatency::total            0                       # Latency in cycles for TLB miss
system.gpu.shader_cores1.itb.hits                   0                       # Number of hits in this TLB
system.gpu.shader_cores1.itb.misses                 0                       # Number of misses in this TLB
system.gpu.shader_cores1.itb.hitRate              nan                       # Hit rate for this TLB
system.gpu.shader_cores1.local_loads                0                       # Number of loads from local space
system.gpu.shader_cores1.local_stores               0                       # Number of stores to local space
system.gpu.shader_cores1.shared_loads               0                       # Number of loads from shared space
system.gpu.shader_cores1.shared_stores              0                       # Number of stores to shared space
system.gpu.shader_cores1.param_kernel_loads            0                       # Number of loads from kernel parameter space
system.gpu.shader_cores1.param_local_loads            0                       # Number of loads from local parameter space
system.gpu.shader_cores1.param_local_stores            0                       # Number of stores to local parameter space
system.gpu.shader_cores1.const_loads                0                       # Number of loads from constant space
system.gpu.shader_cores1.tex_loads                  0                       # Number of loads from texture space
system.gpu.shader_cores1.global_loads               0                       # Number of loads from global space
system.gpu.shader_cores1.global_stores              0                       # Number of stores to global space
system.gpu.shader_cores1.surf_loads                 0                       # Number of loads from surface space
system.gpu.shader_cores1.generic_loads              0                       # Number of loads from generic spaces (global, shared, local)
system.gpu.shader_cores1.generic_stores             0                       # Number of stores to generic spaces (global, shared, local)
system.gpu.shader_cores1.inst_cache_requests            0                       # Number of instruction cache requests sent
system.gpu.shader_cores1.inst_cache_retries            0                       # Number of instruction cache retries
system.gpu.shader_cores1.inst_counts::0             0                       # Inst counts: 1: ALU, 2: MAD, 3: CTRL, 4: SFU, 5: MEM, 6: TEX, 7: NOP
system.gpu.shader_cores1.inst_counts::1             0                       # Inst counts: 1: ALU, 2: MAD, 3: CTRL, 4: SFU, 5: MEM, 6: TEX, 7: NOP
system.gpu.shader_cores1.inst_counts::2             0                       # Inst counts: 1: ALU, 2: MAD, 3: CTRL, 4: SFU, 5: MEM, 6: TEX, 7: NOP
system.gpu.shader_cores1.inst_counts::3             0                       # Inst counts: 1: ALU, 2: MAD, 3: CTRL, 4: SFU, 5: MEM, 6: TEX, 7: NOP
system.gpu.shader_cores1.inst_counts::4             0                       # Inst counts: 1: ALU, 2: MAD, 3: CTRL, 4: SFU, 5: MEM, 6: TEX, 7: NOP
system.gpu.shader_cores1.inst_counts::5             0                       # Inst counts: 1: ALU, 2: MAD, 3: CTRL, 4: SFU, 5: MEM, 6: TEX, 7: NOP
system.gpu.shader_cores1.inst_counts::6             0                       # Inst counts: 1: ALU, 2: MAD, 3: CTRL, 4: SFU, 5: MEM, 6: TEX, 7: NOP
system.gpu.shader_cores1.inst_counts::7             0                       # Inst counts: 1: ALU, 2: MAD, 3: CTRL, 4: SFU, 5: MEM, 6: TEX, 7: NOP
system.gpu.shader_cores1.activeCycles               0                       # Number of cycles this shader was executing a CTA
system.gpu.shader_cores1.notStalledCycles            0                       # Number of cycles this shader was actually executing at least one instance
system.gpu.shader_cores1.instInstances              0                       # Total instructions executed by all PEs in the core
system.gpu.shader_cores1.instPerCycle             nan                       # Instruction instances per cycle
system.gpu.shader_cores1.kernels_completed            0                       # Number of kernels completed
system.gpu.shader_cores1.lsq.data_tlb.hits            0                       # Number of hits in this TLB
system.gpu.shader_cores1.lsq.data_tlb.misses            0                       # Number of misses in this TLB
system.gpu.shader_cores1.lsq.data_tlb.hitRate          nan                       # Hit rate for this TLB
system.gpu.shader_cores1.lsq.warpInstBufActive::samples            0                       # Histogram of number of active warp inst buffers at a given time
system.gpu.shader_cores1.lsq.warpInstBufActive::mean          nan                       # Histogram of number of active warp inst buffers at a given time
system.gpu.shader_cores1.lsq.warpInstBufActive::gmean          nan                       # Histogram of number of active warp inst buffers at a given time
system.gpu.shader_cores1.lsq.warpInstBufActive::stdev          nan                       # Histogram of number of active warp inst buffers at a given time
system.gpu.shader_cores1.lsq.warpInstBufActive::0            0                       # Histogram of number of active warp inst buffers at a given time
system.gpu.shader_cores1.lsq.warpInstBufActive::1            0                       # Histogram of number of active warp inst buffers at a given time
system.gpu.shader_cores1.lsq.warpInstBufActive::2            0                       # Histogram of number of active warp inst buffers at a given time
system.gpu.shader_cores1.lsq.warpInstBufActive::3            0                       # Histogram of number of active warp inst buffers at a given time
system.gpu.shader_cores1.lsq.warpInstBufActive::4            0                       # Histogram of number of active warp inst buffers at a given time
system.gpu.shader_cores1.lsq.warpInstBufActive::5            0                       # Histogram of number of active warp inst buffers at a given time
system.gpu.shader_cores1.lsq.warpInstBufActive::6            0                       # Histogram of number of active warp inst buffers at a given time
system.gpu.shader_cores1.lsq.warpInstBufActive::7            0                       # Histogram of number of active warp inst buffers at a given time
system.gpu.shader_cores1.lsq.warpInstBufActive::8            0                       # Histogram of number of active warp inst buffers at a given time
system.gpu.shader_cores1.lsq.warpInstBufActive::9            0                       # Histogram of number of active warp inst buffers at a given time
system.gpu.shader_cores1.lsq.warpInstBufActive::10            0                       # Histogram of number of active warp inst buffers at a given time
system.gpu.shader_cores1.lsq.warpInstBufActive::11            0                       # Histogram of number of active warp inst buffers at a given time
system.gpu.shader_cores1.lsq.warpInstBufActive::12            0                       # Histogram of number of active warp inst buffers at a given time
system.gpu.shader_cores1.lsq.warpInstBufActive::13            0                       # Histogram of number of active warp inst buffers at a given time
system.gpu.shader_cores1.lsq.warpInstBufActive::14            0                       # Histogram of number of active warp inst buffers at a given time
system.gpu.shader_cores1.lsq.warpInstBufActive::15            0                       # Histogram of number of active warp inst buffers at a given time
system.gpu.shader_cores1.lsq.warpInstBufActive::16            0                       # Histogram of number of active warp inst buffers at a given time
system.gpu.shader_cores1.lsq.warpInstBufActive::17            0                       # Histogram of number of active warp inst buffers at a given time
system.gpu.shader_cores1.lsq.warpInstBufActive::18            0                       # Histogram of number of active warp inst buffers at a given time
system.gpu.shader_cores1.lsq.warpInstBufActive::19            0                       # Histogram of number of active warp inst buffers at a given time
system.gpu.shader_cores1.lsq.warpInstBufActive::20            0                       # Histogram of number of active warp inst buffers at a given time
system.gpu.shader_cores1.lsq.warpInstBufActive::21            0                       # Histogram of number of active warp inst buffers at a given time
system.gpu.shader_cores1.lsq.warpInstBufActive::22            0                       # Histogram of number of active warp inst buffers at a given time
system.gpu.shader_cores1.lsq.warpInstBufActive::23            0                       # Histogram of number of active warp inst buffers at a given time
system.gpu.shader_cores1.lsq.warpInstBufActive::24            0                       # Histogram of number of active warp inst buffers at a given time
system.gpu.shader_cores1.lsq.warpInstBufActive::25            0                       # Histogram of number of active warp inst buffers at a given time
system.gpu.shader_cores1.lsq.warpInstBufActive::26            0                       # Histogram of number of active warp inst buffers at a given time
system.gpu.shader_cores1.lsq.warpInstBufActive::27            0                       # Histogram of number of active warp inst buffers at a given time
system.gpu.shader_cores1.lsq.warpInstBufActive::28            0                       # Histogram of number of active warp inst buffers at a given time
system.gpu.shader_cores1.lsq.warpInstBufActive::29            0                       # Histogram of number of active warp inst buffers at a given time
system.gpu.shader_cores1.lsq.warpInstBufActive::30            0                       # Histogram of number of active warp inst buffers at a given time
system.gpu.shader_cores1.lsq.warpInstBufActive::31            0                       # Histogram of number of active warp inst buffers at a given time
system.gpu.shader_cores1.lsq.warpInstBufActive::32            0                       # Histogram of number of active warp inst buffers at a given time
system.gpu.shader_cores1.lsq.warpInstBufActive::33            0                       # Histogram of number of active warp inst buffers at a given time
system.gpu.shader_cores1.lsq.warpInstBufActive::34            0                       # Histogram of number of active warp inst buffers at a given time
system.gpu.shader_cores1.lsq.warpInstBufActive::35            0                       # Histogram of number of active warp inst buffers at a given time
system.gpu.shader_cores1.lsq.warpInstBufActive::36            0                       # Histogram of number of active warp inst buffers at a given time
system.gpu.shader_cores1.lsq.warpInstBufActive::37            0                       # Histogram of number of active warp inst buffers at a given time
system.gpu.shader_cores1.lsq.warpInstBufActive::38            0                       # Histogram of number of active warp inst buffers at a given time
system.gpu.shader_cores1.lsq.warpInstBufActive::39            0                       # Histogram of number of active warp inst buffers at a given time
system.gpu.shader_cores1.lsq.warpInstBufActive::40            0                       # Histogram of number of active warp inst buffers at a given time
system.gpu.shader_cores1.lsq.warpInstBufActive::41            0                       # Histogram of number of active warp inst buffers at a given time
system.gpu.shader_cores1.lsq.warpInstBufActive::42            0                       # Histogram of number of active warp inst buffers at a given time
system.gpu.shader_cores1.lsq.warpInstBufActive::43            0                       # Histogram of number of active warp inst buffers at a given time
system.gpu.shader_cores1.lsq.warpInstBufActive::44            0                       # Histogram of number of active warp inst buffers at a given time
system.gpu.shader_cores1.lsq.warpInstBufActive::45            0                       # Histogram of number of active warp inst buffers at a given time
system.gpu.shader_cores1.lsq.warpInstBufActive::46            0                       # Histogram of number of active warp inst buffers at a given time
system.gpu.shader_cores1.lsq.warpInstBufActive::47            0                       # Histogram of number of active warp inst buffers at a given time
system.gpu.shader_cores1.lsq.warpInstBufActive::48            0                       # Histogram of number of active warp inst buffers at a given time
system.gpu.shader_cores1.lsq.warpInstBufActive::49            0                       # Histogram of number of active warp inst buffers at a given time
system.gpu.shader_cores1.lsq.warpInstBufActive::50            0                       # Histogram of number of active warp inst buffers at a given time
[...]
system.ruby.LD.latency_hist::max_bucket           319                      
system.ruby.LD.latency_hist::samples             1045                      
system.ruby.LD.latency_hist::mean            9.755981                      
system.ruby.LD.latency_hist::gmean           3.539721                      
system.ruby.LD.latency_hist::stdev          32.629242                      
system.ruby.LD.latency_hist              |        1002     95.89%     95.89% |           0      0.00%     95.89% |           0      0.00%     95.89% |           0      0.00%     95.89% |           0      0.00%     95.89% |          43      4.11%    100.00% |           0      0.00%    100.00% |           0      0.00%    100.00% |           0      0.00%    100.00% |           0      0.00%    100.00%
system.ruby.LD.latency_hist::total               1045                      
system.ruby.LD.hit_latency_hist::bucket_size            1                      
system.ruby.LD.hit_latency_hist::max_bucket            9                      
system.ruby.LD.hit_latency_hist::samples         1002                      
system.ruby.LD.hit_latency_hist::mean               3                      
system.ruby.LD.hit_latency_hist::gmean       3.000000                      
system.ruby.LD.hit_latency_hist          |           0      0.00%      0.00% |           0      0.00%      0.00% |           0      0.00%      0.00% |        1002    100.00%    100.00% |           0      0.00%    100.00% |           0      0.00%    100.00% |           0      0.00%    100.00% |           0      0.00%    100.00% |           0      0.00%    100.00% |           0      0.00%    100.00%
system.ruby.LD.hit_latency_hist::total           1002                      
system.ruby.LD.miss_latency_hist::bucket_size           32                      
system.ruby.LD.miss_latency_hist::max_bucket          319                      
system.ruby.LD.miss_latency_hist::samples           43                      
system.ruby.LD.miss_latency_hist::mean     167.186047                      
system.ruby.LD.miss_latency_hist::gmean    167.182119                      
system.ruby.LD.miss_latency_hist::stdev      1.159963                      
system.ruby.LD.miss_latency_hist         |           0      0.00%      0.00% |           0      0.00%      0.00% |           0      0.00%      0.00% |           0      0.00%      0.00% |           0      0.00%      0.00% |          43    100.00%    100.00% |           0      0.00%    100.00% |           0      0.00%    100.00% |           0      0.00%    100.00% |           0      0.00%    100.00%
system.ruby.LD.miss_latency_hist::total            43                      
system.ruby.ST.latency_hist::bucket_size           32                      
system.ruby.ST.latency_hist::max_bucket           319                      
system.ruby.ST.latency_hist::samples              935                      
system.ruby.ST.latency_hist::mean           10.930481                      
system.ruby.ST.latency_hist::gmean           3.641070                      
system.ruby.ST.latency_hist::stdev          35.291179                      
system.ruby.ST.latency_hist              |         890     95.19%     95.19% |           0      0.00%     95.19% |           0      0.00%     95.19% |           0      0.00%     95.19% |           0      0.00%     95.19% |          45      4.81%    100.00% |           0      0.00%    100.00% |           0      0.00%    100.00% |           0      0.00%    100.00% |           0      0.00%    100.00%
system.ruby.ST.latency_hist::total                935                      
system.ruby.ST.hit_latency_hist::bucket_size            1                      
system.ruby.ST.hit_latency_hist::max_bucket            9                      
system.ruby.ST.hit_latency_hist::samples          890                      
system.ruby.ST.hit_latency_hist::mean               3                      
system.ruby.ST.hit_latency_hist::gmean       3.000000                      
system.ruby.ST.hit_latency_hist          |           0      0.00%      0.00% |           0      0.00%      0.00% |           0      0.00%      0.00% |         890    100.00%    100.00% |           0      0.00%    100.00% |           0      0.00%    100.00% |           0      0.00%    100.00% |           0      0.00%    100.00% |           0      0.00%    100.00% |           0      0.00%    100.00%
system.ruby.ST.hit_latency_hist::total            890                      
system.ruby.ST.miss_latency_hist::bucket_size           32                      
system.ruby.ST.miss_latency_hist::max_bucket          319                      
system.ruby.ST.miss_latency_hist::samples           45                      
system.ruby.ST.miss_latency_hist::mean     167.777778                      
system.ruby.ST.miss_latency_hist::gmean    167.761956                      
system.ruby.ST.miss_latency_hist::stdev      2.353806                      
system.ruby.ST.miss_latency_hist         |           0      0.00%      0.00% |           0      0.00%      0.00% |           0      0.00%      0.00% |           0      0.00%      0.00% |           0      0.00%      0.00% |          45    100.00%    100.00% |           0      0.00%    100.00% |           0      0.00%    100.00% |           0      0.00%    100.00% |           0      0.00%    100.00%
system.ruby.ST.miss_latency_hist::total            45                      
system.ruby.IFETCH.latency_hist::bucket_size           32                      
system.ruby.IFETCH.latency_hist::max_bucket          319                      
system.ruby.IFETCH.latency_hist::samples         6864                      
system.ruby.IFETCH.latency_hist::mean        6.340472                      
system.ruby.IFETCH.latency_hist::gmean       3.257750                      
system.ruby.IFETCH.latency_hist::stdev      23.162815                      
system.ruby.IFETCH.latency_hist          |        6723     97.95%     97.95% |           2      0.03%     97.97% |           0      0.00%     97.97% |           0      0.00%     97.97% |           0      0.00%     97.97% |         139      2.03%    100.00% |           0      0.00%    100.00% |           0      0.00%    100.00% |           0      0.00%    100.00% |           0      0.00%    100.00%
system.ruby.IFETCH.latency_hist::total           6864                      
system.ruby.IFETCH.hit_latency_hist::bucket_size            1                      
system.ruby.IFETCH.hit_latency_hist::max_bucket            9                      
system.ruby.IFETCH.hit_latency_hist::samples         6722                      
system.ruby.IFETCH.hit_latency_hist::mean            3                      
system.ruby.IFETCH.hit_latency_hist::gmean     3.000000                      
system.ruby.IFETCH.hit_latency_hist      |           0      0.00%      0.00% |           0      0.00%      0.00% |           0      0.00%      0.00% |        6722    100.00%    100.00% |           0      0.00%    100.00% |           0      0.00%    100.00% |           0      0.00%    100.00% |           0      0.00%    100.00% |           0      0.00%    100.00% |           0      0.00%    100.00%
system.ruby.IFETCH.hit_latency_hist::total         6722                      
system.ruby.IFETCH.miss_latency_hist::bucket_size           32                      
system.ruby.IFETCH.miss_latency_hist::max_bucket          319                      
system.ruby.IFETCH.miss_latency_hist::samples          142                      
system.ruby.IFETCH.miss_latency_hist::mean   164.471831                      
system.ruby.IFETCH.miss_latency_hist::gmean   161.233588                      
system.ruby.IFETCH.miss_latency_hist::stdev    19.984992                      
system.ruby.IFETCH.miss_latency_hist     |           1      0.70%      0.70% |           2      1.41%      2.11% |           0      0.00%      2.11% |           0      0.00%      2.11% |           0      0.00%      2.11% |         139     97.89%    100.00% |           0      0.00%    100.00% |           0      0.00%    100.00% |           0      0.00%    100.00% |           0      0.00%    100.00%
system.ruby.IFETCH.miss_latency_hist::total          142                      
system.ruby.RMW_Read.latency_hist::bucket_size            1                      
system.ruby.RMW_Read.latency_hist::max_bucket            9                      
system.ruby.RMW_Read.latency_hist::samples            8                      
system.ruby.RMW_Read.latency_hist::mean             3                      
system.ruby.RMW_Read.latency_hist::gmean     3.000000                      
system.ruby.RMW_Read.latency_hist        |           0      0.00%      0.00% |           0      0.00%      0.00% |           0      0.00%      0.00% |           8    100.00%    100.00% |           0      0.00%    100.00% |           0      0.00%    100.00% |           0      0.00%    100.00% |           0      0.00%    100.00% |           0      0.00%    100.00% |           0      0.00%    100.00%
system.ruby.RMW_Read.latency_hist::total            8                      
system.ruby.RMW_Read.hit_latency_hist::bucket_size            1                      
system.ruby.RMW_Read.hit_latency_hist::max_bucket            9                      
system.ruby.RMW_Read.hit_latency_hist::samples            8                      
system.ruby.RMW_Read.hit_latency_hist::mean            3                      
system.ruby.RMW_Read.hit_latency_hist::gmean     3.000000                      
system.ruby.RMW_Read.hit_latency_hist    |           0      0.00%      0.00% |           0      0.00%      0.00% |           0      0.00%      0.00% |           8    100.00%    100.00% |           0      0.00%    100.00% |           0      0.00%    100.00% |           0      0.00%    100.00% |           0      0.00%    100.00% |           0      0.00%    100.00% |           0      0.00%    100.00%
system.ruby.RMW_Read.hit_latency_hist::total            8                      
system.ruby.Directory_Controller.Fetch            227      0.00%      0.00%
system.ruby.Directory_Controller.Memory_Data          227      0.00%      0.00%
system.ruby.Directory_Controller.I.Fetch          227      0.00%      0.00%
system.ruby.Directory_Controller.IM.Memory_Data          227      0.00%      0.00%
system.ruby.L1Cache_Controller.Load      |        1045    100.00%    100.00% |           0      0.00%    100.00% |           0      0.00%    100.00% |           0      0.00%    100.00% |           0      0.00%    100.00% |           0      0.00%    100.00% |           0      0.00%    100.00%
system.ruby.L1Cache_Controller.Load::total         1045                      
system.ruby.L1Cache_Controller.Ifetch    |        6866    100.00%    100.00% |           0      0.00%    100.00% |           0      0.00%    100.00% |           0      0.00%    100.00% |           0      0.00%    100.00% |           0      0.00%    100.00% |           0      0.00%    100.00%
system.ruby.L1Cache_Controller.Ifetch::total         6866                      
system.ruby.L1Cache_Controller.Store     |         943    100.00%    100.00% |           0      0.00%    100.00% |           0      0.00%    100.00% |           0      0.00%    100.00% |           0      0.00%    100.00% |           0      0.00%    100.00% |           0      0.00%    100.00%
system.ruby.L1Cache_Controller.Store::total          943                      
system.ruby.L1Cache_Controller.L1_Replacement |          15    100.00%    100.00% |           0      0.00%    100.00% |           0      0.00%    100.00% |           0      0.00%    100.00% |           0      0.00%    100.00% |           0      0.00%    100.00% |           0      0.00%    100.00%
system.ruby.L1Cache_Controller.L1_Replacement::total           15                      
system.ruby.L1Cache_Controller.Data_Exclusive |          43    100.00%    100.00% |           0      0.00%    100.00% |           0      0.00%    100.00% |           0      0.00%    100.00% |           0      0.00%    100.00% |           0      0.00%    100.00% |           0      0.00%    100.00%
system.ruby.L1Cache_Controller.Data_Exclusive::total           43                      
system.ruby.L1Cache_Controller.Data_all_Acks |         187    100.00%    100.00% |           0      0.00%    100.00% |           0      0.00%    100.00% |           0      0.00%    100.00% |           0      0.00%    100.00% |           0      0.00%    100.00% |           0      0.00%    100.00%
system.ruby.L1Cache_Controller.Data_all_Acks::total          187                      
system.ruby.L1Cache_Controller.WB_Ack    |           2    100.00%    100.00% |           0      0.00%    100.00% |           0      0.00%    100.00% |           0      0.00%    100.00% |           0      0.00%    100.00% |           0      0.00%    100.00% |           0      0.00%    100.00%
system.ruby.L1Cache_Controller.WB_Ack::total            2                      
system.ruby.L1Cache_Controller.NP.Load   |          43    100.00%    100.00% |           0      0.00%    100.00% |           0      0.00%    100.00% |           0      0.00%    100.00% |           0      0.00%    100.00% |           0      0.00%    100.00% |           0      0.00%    100.00%
system.ruby.L1Cache_Controller.NP.Load::total           43                      
system.ruby.L1Cache_Controller.NP.Ifetch |         142    100.00%    100.00% |           0      0.00%    100.00% |           0      0.00%    100.00% |           0      0.00%    100.00% |           0      0.00%    100.00% |           0      0.00%    100.00% |           0      0.00%    100.00%
system.ruby.L1Cache_Controller.NP.Ifetch::total          142                      
system.ruby.L1Cache_Controller.NP.Store  |          45    100.00%    100.00% |           0      0.00%    100.00% |           0      0.00%    100.00% |           0      0.00%    100.00% |           0      0.00%    100.00% |           0      0.00%    100.00% |           0      0.00%    100.00%
system.ruby.L1Cache_Controller.NP.Store::total           45                      
system.ruby.L1Cache_Controller.S.Ifetch  |        6722    100.00%    100.00% |           0      0.00%    100.00% |           0      0.00%    100.00% |           0      0.00%    100.00% |           0      0.00%    100.00% |           0      0.00%    100.00% |           0      0.00%    100.00%
system.ruby.L1Cache_Controller.S.Ifetch::total         6722                      
system.ruby.L1Cache_Controller.S.L1_Replacement |          13    100.00%    100.00% |           0      0.00%    100.00% |           0      0.00%    100.00% |           0      0.00%    100.00% |           0      0.00%    100.00% |           0      0.00%    100.00% |           0      0.00%    100.00%
system.ruby.L1Cache_Controller.S.L1_Replacement::total           13                      
system.ruby.L1Cache_Controller.E.Load    |         230    100.00%    100.00% |           0      0.00%    100.00% |           0      0.00%    100.00% |           0      0.00%    100.00% |           0      0.00%    100.00% |           0      0.00%    100.00% |           0      0.00%    100.00%
system.ruby.L1Cache_Controller.E.Load::total          230                      
system.ruby.L1Cache_Controller.E.Store   |          17    100.00%    100.00% |           0      0.00%    100.00% |           0      0.00%    100.00% |           0      0.00%    100.00% |           0      0.00%    100.00% |           0      0.00%    100.00% |           0      0.00%    100.00%
system.ruby.L1Cache_Controller.E.Store::total           17                      
system.ruby.L1Cache_Controller.E.L1_Replacement |           2    100.00%    100.00% |           0      0.00%    100.00% |           0      0.00%    100.00% |           0      0.00%    100.00% |           0      0.00%    100.00% |           0      0.00%    100.00% |           0      0.00%    100.00%
system.ruby.L1Cache_Controller.E.L1_Replacement::total            2                      
system.ruby.L1Cache_Controller.M.Load    |         772    100.00%    100.00% |           0      0.00%    100.00% |           0      0.00%    100.00% |           0      0.00%    100.00% |           0      0.00%    100.00% |           0      0.00%    100.00% |           0      0.00%    100.00%
system.ruby.L1Cache_Controller.M.Load::total          772                      
system.ruby.L1Cache_Controller.M.Store   |         881    100.00%    100.00% |           0      0.00%    100.00% |           0      0.00%    100.00% |           0      0.00%    100.00% |           0      0.00%    100.00% |           0      0.00%    100.00% |           0      0.00%    100.00%
system.ruby.L1Cache_Controller.M.Store::total          881                      
system.ruby.L1Cache_Controller.IS.Data_Exclusive |          43    100.00%    100.00% |           0      0.00%    100.00% |           0      0.00%    100.00% |           0      0.00%    100.00% |           0      0.00%    100.00% |           0      0.00%    100.00% |           0      0.00%    100.00%
system.ruby.L1Cache_Controller.IS.Data_Exclusive::total           43                      
system.ruby.L1Cache_Controller.IS.Data_all_Acks |         142    100.00%    100.00% |           0      0.00%    100.00% |           0      0.00%    100.00% |           0      0.00%    100.00% |           0      0.00%    100.00% |           0      0.00%    100.00% |           0      0.00%    100.00%
system.ruby.L1Cache_Controller.IS.Data_all_Acks::total          142                      
system.ruby.L1Cache_Controller.IM.Data_all_Acks |          45    100.00%    100.00% |           0      0.00%    100.00% |           0      0.00%    100.00% |           0      0.00%    100.00% |           0      0.00%    100.00% |           0      0.00%    100.00% |           0      0.00%    100.00%
system.ruby.L1Cache_Controller.IM.Data_all_Acks::total           45                      
system.ruby.L1Cache_Controller.M_I.Ifetch |           2    100.00%    100.00% |           0      0.00%    100.00% |           0      0.00%    100.00% |           0      0.00%    100.00% |           0      0.00%    100.00% |           0      0.00%    100.00% |           0      0.00%    100.00%
system.ruby.L1Cache_Controller.M_I.Ifetch::total            2                      
system.ruby.L1Cache_Controller.M_I.WB_Ack |           2    100.00%    100.00% |           0      0.00%    100.00% |           0      0.00%    100.00% |           0      0.00%    100.00% |           0      0.00%    100.00% |           0      0.00%    100.00% |           0      0.00%    100.00%
system.ruby.L1Cache_Controller.M_I.WB_Ack::total            2                      
system.ruby.L2Cache_Controller.L1_GET_INSTR          142      0.00%      0.00%
system.ruby.L2Cache_Controller.L1_GETS             43      0.00%      0.00%
system.ruby.L2Cache_Controller.L1_GETX             45      0.00%      0.00%
system.ruby.L2Cache_Controller.L1_PUTX              2      0.00%      0.00%
system.ruby.L2Cache_Controller.Mem_Data           227      0.00%      0.00%
system.ruby.L2Cache_Controller.Exclusive_Unblock           88      0.00%      0.00%
system.ruby.L2Cache_Controller.NP.L1_GET_INSTR          139      0.00%      0.00%
system.ruby.L2Cache_Controller.NP.L1_GETS           43      0.00%      0.00%
system.ruby.L2Cache_Controller.NP.L1_GETX           45      0.00%      0.00%
system.ruby.L2Cache_Controller.SS.L1_GET_INSTR            1      0.00%      0.00%
system.ruby.L2Cache_Controller.M.L1_GET_INSTR            2      0.00%      0.00%
system.ruby.L2Cache_Controller.MT.L1_PUTX            2      0.00%      0.00%
system.ruby.L2Cache_Controller.ISS.Mem_Data           43      0.00%      0.00%
system.ruby.L2Cache_Controller.IS.Mem_Data          139      0.00%      0.00%
system.ruby.L2Cache_Controller.IM.Mem_Data           45      0.00%      0.00%
system.ruby.L2Cache_Controller.MT_MB.Exclusive_Unblock           88      0.00%      0.00%

---------- End Simulation Statistics   ----------
